data_PCOD9000507
_publ_section_title
;
Structure prediction by ZEFSAII (Michael W. Deem and Ramdas Pophale) SiO2 
 PCOD9000507
Probable space group: P 1
;
_chemical_formula_sum "Si O2"
_cell_formula_units_Z 8
_cell_length_a 5.050552
_cell_length_b 5.670170
_cell_length_c 11.171907
_cell_angle_alpha 101.555505
_cell_angle_beta 92.777320
_cell_angle_gamma 99.016408
_cell_volume 308.521651
_symmetry_space_group_name_H-M "P 1"
_symmetry_group_IT_number 1
_symmetry_cell_setting 'triclinic'
loop_
_space_group_symop_operation_xyz
x,y,z
loop_
_atom_site_type_symbol
_atom_site_label
_atom_site_fract_x
_atom_site_fract_y
_atom_site_fract_z
Si Si1 0.735160 0.062510 0.256480
Si Si2 0.476560 0.592968 0.948299
Si Si3 0.017480 0.843352 0.033637
Si Si4 0.570548 0.114640 0.679934
Si Si5 0.441118 0.581244 0.656478
Si Si6 0.079025 0.148196 0.843181
Si Si7 0.547376 0.555975 0.313095
Si Si8 0.019701 0.455967 0.453587
O O1 0.588448 0.289014 0.235059
O O2 0.890465 0.176953 0.391590
O O3 0.564250 0.799062 0.259074
O O4 0.949389 0.011665 0.156356
O O5 0.319125 0.795716 0.021152
O O6 0.272343 0.346508 0.946019
O O7 0.773916 0.610674 0.008893
O O8 0.457690 0.606129 0.803737
O O9 0.956198 0.945352 0.913019
O O10 0.545824 0.325725 0.605421
O O11 0.826782 0.222229 0.777291
O O12 0.288011 0.079420 0.743241
O O13 0.589452 0.833841 0.629097
O O14 0.138836 0.526851 0.593260
O O15 0.277252 0.515364 0.378494
O O16 0.803889 0.604982 0.411344
#
# Coordination Sequence:
#
# PCOD9000507 Si02
#       8
#     1   1   1   1   1   1   1   1
#     4  10  28  46  71 103 134 183 230 284 340 397
#     4  11  25  41  67 103 136 179 223 276 341 407
#     4  12  24  42  71  94 142 174 230 275 341 405
#     4  11  25  41  70  98 144 172 227 271 340 406
#     4  11  24  46  68 106 135 182 223 282 337 411
#     4  11  23  44  63 101 139 179 221 274 338 408
#     4  10  26  46  71 101 136 174 242 275 344 395
#     4  10  27  46  75  96 142 177 232 281 343 399
#
# _framework density 25.930109000000002
#
# number of rings (size 3 to 8) (size 9 to 14) (size 15 to 20)
#    0.750    0.500    2.500    1.500    7.000    5.000 
#    2.250    0.000    0.000    0.000    0.000    0.000 
#    0.000    0.000    0.000    0.000    0.000    0.000 
#
# Total GULP energy -44680.815390 kJ/mol
# GULP energy per Si atom -5585.101924 kJ/mol
# Density = 2.587109 g / cm^3
# Si number density = 25.930109 Si / 1000 Ang^3
#
#
#
# Elastic Constant Matrix: (Units=GPa)
#
#
# Indices 1 2 3 4 5 6 
#
# 1 94.9077 21.5829 35.0283 4.1640 -9.0905 -12.7701
# 2 21.5829 169.1213 29.0029 -2.1293 -6.9521 0.5874
# 3 35.0283 29.0029 96.6901 16.3140 -2.3947 -11.5924
# 4 4.1640 -2.1293 16.3140 32.0203 -7.2584 2.0416
# 5 -9.0905 -6.9521 -2.3947 -7.2584 53.0116 7.3163
# 6 -12.7701 0.5874 -11.5924 2.0416 7.3163 28.2932
#
#
#
# Elastic Compliance Matrix: (Units=1/GPa)
#
#
# Indices 1 2 3 4 5 6 
#
# 1 0.012832 -0.000911 -0.003946 0.000363 0.001428 0.003798
# 2 -0.000911 0.006476 -0.002149 0.002019 0.001130 -0.001864
# 3 -0.003946 -0.002149 0.014292 -0.007718 -0.002089 0.005217
# 4 0.000363 0.002019 -0.007718 0.037088 0.006062 -0.007284
# 5 0.001428 0.001130 -0.002089 0.006062 0.020829 -0.006058
# 6 0.003798 -0.001864 0.005217 -0.007284 -0.006058 0.041327
#
#
# Mechanical properties :
#
#
# Convention : Reuss Voigt Hill
#
# Bulk Modulus (GPa) = 51.04788 59.10524 55.07656
# Shear Modulus (GPa) = 32.59793 41.00537 36.80165
#
# Velocity S-wave (km/s) = 3.54947 3.98097 3.77140
# Velocity P-wave (km/s) = 6.04382 6.63132 6.34437
#
# Compressibility (1/GPa) = 0.01958945
#
# Stress axis : x y z
#
# Youngs Moduli (GPa) = 77.93021 154.41772 69.96838
#
# Poissons Ratio (x) = 0.14065 0.27609
# Poissons Ratio (y) = 0.07098 0.15033
# Poissons Ratio (z) = 0.30751 0.33178
#
# Static dielectric constant tensor:
#      x y z
#    x 1.980850 -0.021010 -0.009590 
#    y -0.021010 2.115130 0.064930 
#    z -0.009590 0.064930 2.030870 
# 
# From -- ./inp_files/587.got.cif
#   From: 2010.05.17/outbox.cif.g08.bks.cpg/sg1_1_cif.got.tgz:587.got - 2010.05.17 20:27:59.
