data_PCOD9000386
_publ_section_title
;
Structure prediction by ZEFSAII (Michael W. Deem and Ramdas Pophale) SiO2 
 PCOD9000386
Probable space group: P 1
;
_chemical_formula_sum "Si O2"
_cell_formula_units_Z 6
_cell_length_a 5.154622
_cell_length_b 8.634813
_cell_length_c 8.460366
_cell_angle_alpha 127.585232
_cell_angle_beta 101.796818
_cell_angle_gamma 55.170840
_cell_volume 238.879906
_symmetry_space_group_name_H-M "P 1"
_symmetry_group_IT_number 1
_symmetry_cell_setting 'triclinic'
loop_
_space_group_symop_operation_xyz
x,y,z
loop_
_atom_site_type_symbol
_atom_site_label
_atom_site_fract_x
_atom_site_fract_y
_atom_site_fract_z
Si Si1 0.794720 0.579860 0.346090
Si Si2 0.712254 0.403904 0.551737
Si Si3 0.342741 0.048198 0.989359
Si Si4 0.319672 0.336236 0.675677
Si Si5 0.322986 0.932477 0.262856
Si Si6 0.821338 0.987150 0.760268
O O1 0.670429 0.517627 0.446984
O O2 0.525410 0.698643 0.248911
O O3 0.114981 0.330696 0.175964
O O4 0.868884 0.768993 0.529923
O O5 0.404897 0.478760 0.662468
O O6 0.941502 0.451055 0.712706
O O7 0.940502 0.115380 0.369843
O O8 0.379517 0.914959 0.073847
O O9 0.666432 0.984701 0.905683
O O10 0.130290 0.996351 0.817945
O O11 0.533433 0.234400 0.794470
O O12 0.428887 0.100968 0.442347
#
# Coordination Sequence:
#
# PCOD9000386 Si02
#       6
#     1   1   1   1   1   1
#     4  10  23  47  71  94 133 187 207 274 344 378
#     4   9  19  38  67  93 125 172 218 261 324 388
#     4  11  25  45  66 103 135 165 228 279 315 398
#     4   9  19  40  66  88 136 171 205 278 322 375
#     4   8  21  41  65  96 131 171 218 272 322 393
#     4  11  25  45  69  98 136 172 224 272 325 398
#
# _framework density 25.117222000000002
#
# number of rings (size 3 to 8) (size 9 to 14) (size 15 to 20)
#    1.000    1.333    0.000    1.000    4.667    2.667 
#   15.000    0.000    0.000    0.000    0.000    0.000 
#    0.000    0.000    0.000    0.000    0.000    0.000 
#
# Total GULP energy -33544.852087 kJ/mol
# GULP energy per Si atom -5590.808681 kJ/mol
# Density = 2.506005 g / cm^3
# Si number density = 25.117222 Si / 1000 Ang^3
#
#
#
# Elastic Constant Matrix: (Units=GPa)
#
#
# Indices 1 2 3 4 5 6 
#
# 1 101.5880 -3.7092 5.5919 6.5261 -10.0190 5.0767
# 2 -3.7092 120.6022 20.2763 0.1690 4.9968 -22.0090
# 3 5.5919 20.2763 90.9880 29.5350 -5.0753 -7.4967
# 4 6.5261 0.1690 29.5350 37.2193 -12.5925 8.4312
# 5 -10.0190 4.9968 -5.0753 -12.5925 25.3886 8.1334
# 6 5.0767 -22.0090 -7.4967 8.4312 8.1334 22.7055
#
#
#
# Elastic Compliance Matrix: (Units=1/GPa)
#
#
# Indices 1 2 3 4 5 6 
#
# 1 0.011208 -0.001814 -0.002836 0.006817 0.011377 -0.011807
# 2 -0.001814 0.013190 0.002731 -0.013694 -0.017737 0.025532
# 3 -0.002836 0.002731 0.022030 -0.031527 -0.022617 0.030364
# 4 0.006817 -0.013694 -0.031527 0.095846 0.074667 -0.087545
# 5 0.011377 -0.017737 -0.022617 0.074667 0.110115 -0.094375
# 6 -0.011807 0.025532 0.030364 -0.087545 -0.094375 0.147770
#
#
# Mechanical properties :
#
#
# Convention : Reuss Voigt Hill
#
# Bulk Modulus (GPa) = 23.47906 39.72181 31.60043
# Shear Modulus (GPa) = 11.95621 36.46397 24.21009
#
# Velocity S-wave (km/s) = 2.18415 3.81432 3.10802
# Velocity P-wave (km/s) = 3.96595 5.93697 5.04858
#
# Compressibility (1/GPa) = 0.04259115
#
# Stress axis : x y z
#
# Youngs Moduli (GPa) = 89.22463 75.81424 45.39255
#
# Poissons Ratio (x) = 0.13755 0.12871
# Poissons Ratio (y) = 0.16188 -0.12399
# Poissons Ratio (z) = 0.25300 -0.20708
#
# Static dielectric constant tensor:
#      x y z
#    x 1.941690 -0.059820 0.019140 
#    y -0.059820 2.050560 0.026580 
#    z 0.019140 0.026580 1.985790 
# 
# From -- ./inp_files/1251.got.cif
#   From: 2010.05.17/outbox.cif.g08.bks.cpg/sg1_1_cif.got.tgz:1251.got - 2010.05.17 20:27:59.
