data_PCOD9000313
_publ_section_title
;
Structure prediction by ZEFSAII (Michael W. Deem and Ramdas Pophale) SiO2 
 PCOD9000313
Probable space group: P 1
;
_chemical_formula_sum "Si O2"
_cell_formula_units_Z 8
_cell_length_a 9.671668
_cell_length_b 8.436368
_cell_length_c 9.435157
_cell_angle_alpha 120.780152
_cell_angle_beta 42.372443
_cell_angle_gamma 129.286444
_cell_volume 400.147490
_symmetry_space_group_name_H-M "P 1"
_symmetry_group_IT_number 1
_symmetry_cell_setting 'triclinic'
loop_
_space_group_symop_operation_xyz
x,y,z
loop_
_atom_site_type_symbol
_atom_site_label
_atom_site_fract_x
_atom_site_fract_y
_atom_site_fract_z
Si Si1 0.704810 0.581750 0.779380
Si Si2 0.018132 0.327056 0.003181
Si Si3 0.321997 0.452213 0.548977
Si Si4 0.205980 0.651996 0.471038
Si Si5 0.547672 0.933646 0.114409
Si Si6 0.184826 0.033520 0.286150
Si Si7 0.243000 0.291608 0.100854
Si Si8 0.795970 0.602521 0.405492
O O1 0.696617 0.510590 0.591579
O O2 0.964145 0.658485 0.667268
O O3 0.623281 0.760726 0.929225
O O4 0.518162 0.400219 0.930081
O O5 0.964531 0.510616 0.182804
O O6 0.137766 0.263025 0.011196
O O7 0.774869 0.139263 0.065826
O O8 0.176161 0.402248 0.780137
O O9 0.282625 0.608683 0.545790
O O10 0.242550 0.237495 0.427445
O O11 0.587482 0.544182 0.429977
O O12 0.392514 0.846077 0.333439
O O13 0.175729 0.454841 0.307605
O O14 0.387272 0.970692 0.138654
O O15 0.169513 0.092700 0.162548
O O16 0.947555 0.845005 0.422097
#
# Coordination Sequence:
#
# PCOD9000313 Si02
#       8
#     1   1   1   1   1   1   1   1
#     4  11  21  44  68  89 133 176 209 266 327 381
#     4  12  24  42  65 100 132 169 219 269 318 385
#     4  11  26  44  67  99 130 170 218 266 326 381
#     4  10  23  44  66  93 128 174 215 262 326 386
#     4  11  24  40  68  97 133 170 216 266 325 383
#     4  11  24  46  66  97 134 170 213 269 325 384
#     4  10  23  42  66  96 128 168 219 264 323 384
#     4  12  23  44  68  93 136 171 215 268 320 384
#
# _framework density 19.992629000000001
#
# number of rings (size 3 to 8) (size 9 to 14) (size 15 to 20)
#    0.000    1.000    5.000    1.500    3.500    1.000 
#    0.000    0.000    0.000    0.000    0.000    0.000 
#    0.000    0.000    0.000    0.000    0.000    0.000 
#
# Total GULP energy -44719.112367 kJ/mol
# GULP energy per Si atom -5589.889046 kJ/mol
# Density = 1.994713 g / cm^3
# Si number density = 19.992629 Si / 1000 Ang^3
#
#
#
# Elastic Constant Matrix: (Units=GPa)
#
#
# Indices 1 2 3 4 5 6 
#
# 1 134.1060 14.3584 42.7886 -9.0361 -2.0377 -17.5886
# 2 14.3584 36.2837 2.7986 -10.5636 -12.1491 -0.1036
# 3 42.7886 2.7986 93.1654 -6.4037 -16.3865 -14.5341
# 4 -9.0361 -10.5636 -6.4037 24.8540 2.5486 0.4795
# 5 -2.0377 -12.1491 -16.3865 2.5486 28.2313 -4.9216
# 6 -17.5886 -0.1036 -14.5341 0.4795 -4.9216 36.5006
#
#
#
# Elastic Compliance Matrix: (Units=1/GPa)
#
#
# Indices 1 2 3 4 5 6 
#
# 1 0.009676 -0.004402 -0.004494 0.000798 -0.003461 0.002384
# 2 -0.004402 0.039526 0.005601 0.014636 0.019075 0.002601
# 3 -0.004494 0.005601 0.015873 0.003497 0.011985 0.005741
# 4 0.000798 0.014636 0.003497 0.047157 0.004442 0.001798
# 5 -0.003461 0.019075 0.011985 0.004442 0.051692 0.010070
# 6 0.002384 0.002601 0.005741 0.001798 0.010070 0.032173
#
#
# Mechanical properties :
#
#
# Convention : Reuss Voigt Hill
#
# Bulk Modulus (GPa) = 17.09799 42.60514 29.85157
# Shear Modulus (GPa) = 22.50426 31.49114 26.99770
#
# Velocity S-wave (km/s) = 3.35868 3.97311 3.67874
# Velocity P-wave (km/s) = 4.85918 6.51184 5.74525
#
# Compressibility (1/GPa) = 0.05848641
#
# Stress axis : x y z
#
# Youngs Moduli (GPa) = 103.35246 25.29967 62.99991
#
# Poissons Ratio (x) = 0.11137 0.28309
# Poissons Ratio (y) = 0.45496 -0.35288
# Poissons Ratio (z) = 0.46442 -0.14171
#
# Static dielectric constant tensor:
#      x y z
#    x 1.697570 0.002030 0.004800 
#    y 0.002030 1.704570 0.014490 
#    z 0.004800 0.014490 1.684170 
# 
# From -- ./inp_files/1286.got.cif
#   From: 2010.05.17/outbox.cif.g08.bks.cpg/sg1_1_cif.got.tgz:1286.got - 2010.05.17 20:27:59.
