data_PCOD9000655
_publ_section_title
;
Structure prediction by ZEFSAII (Michael W. Deem and Ramdas Pophale) SiO2 
 PCOD9000655
Probable space group: P 1
;
_chemical_formula_sum "Si O2"
_cell_formula_units_Z 8
_cell_length_a 7.844825
_cell_length_b 7.967630
_cell_length_c 11.705400
_cell_angle_alpha 146.436686
_cell_angle_beta 136.555801
_cell_angle_gamma 51.472737
_cell_volume 277.841383
_symmetry_space_group_name_H-M "P 1"
_symmetry_group_IT_number 1
_symmetry_cell_setting 'triclinic'
loop_
_space_group_symop_operation_xyz
x,y,z
loop_
_atom_site_type_symbol
_atom_site_label
_atom_site_fract_x
_atom_site_fract_y
_atom_site_fract_z
Si Si1 0.028250 0.819630 0.133910
Si Si2 0.818012 0.512026 0.487115
Si Si3 0.195465 0.015481 0.991364
Si Si4 0.447549 0.579451 0.134843
Si Si5 0.737506 0.808550 0.212947
Si Si6 0.195083 0.324567 0.405381
Si Si7 0.098512 0.050586 0.708675
Si Si8 0.572675 0.675439 0.689012
O O1 0.167215 0.460712 0.946986
O O2 0.941476 0.753018 0.182033
O O3 0.003960 0.231257 0.370720
O O4 0.802691 0.826814 0.941957
O O5 0.607854 0.547389 0.307198
O O6 0.644036 0.506148 0.511277
O O7 0.060014 0.674559 0.526976
O O8 0.021813 0.732418 0.760826
O O9 0.487444 0.921487 0.087329
O O10 0.141854 0.224926 0.192467
O O11 0.120208 0.149561 0.909963
O O12 0.607032 0.557454 0.087067
O O13 0.302426 0.924462 0.269856
O O14 0.871624 0.026441 0.492222
O O15 0.471331 0.452149 0.609769
O O16 0.369041 0.949881 0.724710
#
# Coordination Sequence:
#
# PCOD9000655 Si02
#       8
#     1   1   1   1   1   1   1   1
#     4  12  27  45  75 117 154 202 259 312 389 461
#     4  12  25  49  79 109 157 203 255 316 388 455
#     4  12  25  51  82 110 155 207 257 313 388 458
#     4  12  27  47  75 116 157 202 257 318 384 458
#     4  12  26  50  74 113 161 194 260 319 380 460
#     4  12  26  46  81 111 149 210 255 314 389 455
#     4  12  27  51  80 116 155 207 257 320 389 456
#     4  12  25  49  78 112 156 205 256 318 387 459
#
# _framework density 28.793406000000001
#
# number of rings (size 3 to 8) (size 9 to 14) (size 15 to 20)
#    0.000    0.000    6.250    2.250    3.500    3.000 
#    0.000    0.000    2.750    0.000    0.000    0.000 
#    0.000    0.000    0.000    0.000    0.000    0.000 
#
# Total GULP energy -44563.770098 kJ/mol
# GULP energy per Si atom -5570.471262 kJ/mol
# Density = 2.872787 g / cm^3
# Si number density = 28.793406 Si / 1000 Ang^3
#
#
#
# Elastic Constant Matrix: (Units=GPa)
#
#
# Indices 1 2 3 4 5 6 
#
# 1 208.1642 63.5621 47.3091 -6.0294 -7.5184 18.0279
# 2 63.5621 141.4909 37.2893 15.7420 -9.5587 3.4723
# 3 47.3091 37.2893 149.9500 16.1704 -2.1439 12.4455
# 4 -6.0294 15.7420 16.1704 50.5259 6.5177 3.6604
# 5 -7.5184 -9.5587 -2.1439 6.5177 60.3596 -8.5404
# 6 18.0279 3.4723 12.4455 3.6604 -8.5404 58.4464
#
#
#
# Elastic Compliance Matrix: (Units=1/GPa)
#
#
# Indices 1 2 3 4 5 6 
#
# 1 0.006099 -0.002582 -0.001380 0.002108 -0.000151 -0.001588
# 2 -0.002582 0.008940 -0.001141 -0.002989 0.001506 0.000915
# 3 -0.001380 -0.001141 0.007710 -0.002206 0.000017 -0.001008
# 4 0.002108 -0.002989 -0.002206 0.022192 -0.002943 -0.001823
# 5 -0.000151 0.001506 0.000017 -0.002943 0.017487 0.002693
# 6 -0.001588 0.000915 -0.001008 -0.001823 0.002693 0.018267
#
#
# Mechanical properties :
#
#
# Convention : Reuss Voigt Hill
#
# Bulk Modulus (GPa) = 79.72207 88.43624 84.07916
# Shear Modulus (GPa) = 52.58653 57.29600 54.94126
#
# Velocity S-wave (km/s) = 4.27821 4.46567 4.37294
# Velocity P-wave (km/s) = 7.22162 7.57432 7.40007
#
# Compressibility (1/GPa) = 0.01254358
#
# Stress axis : x y z
#
# Youngs Moduli (GPa) = 163.95937 111.85745 129.70752
#
# Poissons Ratio (x) = 0.28882 0.17898
# Poissons Ratio (y) = 0.42334 0.14795
# Poissons Ratio (z) = 0.22624 0.12759
#
# Static dielectric constant tensor:
#      x y z
#    x 2.657770 0.089620 0.026530 
#    y 0.089620 2.993210 0.506490 
#    z 0.026530 0.506490 2.282390 
# 
# From -- ./inp_files/1705.got.cif
#   From: 2010.05.17/outbox.cif.g08.bks.cpg/sg1_1_cif.got.tgz:1705.got - 2010.05.17 20:27:59.
