data_PCOD9000798
_publ_section_title
;
Structure prediction by ZEFSAII (Michael W. Deem and Ramdas Pophale) SiO2 
 PCOD9000798
Probable space group: P 1
;
_chemical_formula_sum "Si O2"
_cell_formula_units_Z 6
_cell_length_a 8.296531
_cell_length_b 8.296376
_cell_length_c 5.411709
_cell_angle_alpha 111.934953
_cell_angle_beta 111.936654
_cell_angle_gamma 112.920733
_cell_volume 252.780018
_symmetry_space_group_name_H-M "P 1"
_symmetry_group_IT_number 1
_symmetry_cell_setting 'triclinic'
loop_
_space_group_symop_operation_xyz
x,y,z
loop_
_atom_site_type_symbol
_atom_site_label
_atom_site_fract_x
_atom_site_fract_y
_atom_site_fract_z
Si Si1 0.693890 0.631510 0.264380
Si Si2 0.294104 0.031311 0.264378
Si Si3 0.726660 0.281488 0.930702
Si Si4 0.528406 0.645913 0.676090
Si Si5 0.944074 0.064073 0.930698
Si Si6 0.308498 0.865825 0.676090
O O1 0.552097 0.541652 0.385373
O O2 0.862438 0.893830 0.557844
O O3 0.805527 0.515916 0.203673
O O4 0.534646 0.570968 0.908440
O O5 0.556425 0.199856 0.557845
O O6 0.204241 0.889523 0.385378
O O7 0.178509 0.142946 0.203660
O O8 0.233557 0.872067 0.908441
O O9 0.902080 0.239496 0.957347
O O10 0.554327 0.102718 0.931982
O O11 0.347365 0.684783 0.564765
O O12 0.765304 0.891738 0.931980
#
# Coordination Sequence:
#
# PCOD9000798 Si02
#       6
#     1   1   1   1   1   1
#     4  10  20  34  60  82 108 144 184 222 270 322
#     4  10  20  34  60  82 108 144 184 222 270 322
#     4   9  21  38  58  81 110 146 181 223 272 322
#     4   9  19  36  58  81 108 146 181 221 272 322
#     4   9  21  38  58  81 110 146 181 223 272 322
#     4   9  19  36  58  81 108 146 181 221 272 322
#
# _framework density 23.736056000000001
#
# number of rings (size 3 to 8) (size 9 to 14) (size 15 to 20)
#    2.000    0.667    0.000    2.000    4.667    0.000 
#    0.000    5.000    0.000    0.000    0.000    0.000 
#    0.000    0.000    0.000    0.000    0.000    0.000 
#
# Total GULP energy -33418.911248 kJ/mol
# GULP energy per Si atom -5569.818541 kJ/mol
# Density = 2.368203 g / cm^3
# Si number density = 23.736056 Si / 1000 Ang^3
#
#
#
# Elastic Constant Matrix: (Units=GPa)
#
#
# Indices 1 2 3 4 5 6 
#
# 1 110.5725 63.7769 81.1756 -14.5747 -9.6840 -47.2468
# 2 63.7769 100.5184 70.8346 -7.5485 -5.5278 -45.3905
# 3 81.1756 70.8346 173.4595 -20.4674 -18.1969 -24.1910
# 4 -14.5747 -7.5485 -20.4674 41.3107 0.9489 7.9595
# 5 -9.6840 -5.5278 -18.1969 0.9489 45.2174 -2.8191
# 6 -47.2468 -45.3905 -24.1910 7.9595 -2.8191 64.1601
#
#
#
# Elastic Compliance Matrix: (Units=1/GPa)
#
#
# Indices 1 2 3 4 5 6 
#
# 1 0.020437 -0.003937 -0.006203 0.001478 0.001981 0.009829
# 2 -0.003937 0.020584 -0.005430 -0.002229 0.000152 0.009899
# 3 -0.006203 -0.005430 0.010807 0.003018 0.002006 -0.004621
# 4 0.001478 -0.002229 0.003018 0.026303 0.000545 -0.002589
# 5 0.001981 0.000152 0.002006 0.000545 0.023559 0.003290
# 6 0.009829 0.009899 -0.004621 -0.002589 0.003290 0.028550
#
#
# Mechanical properties :
#
#
# Convention : Reuss Voigt Hill
#
# Bulk Modulus (GPa) = 48.33743 90.68051 69.50897
# Shear Modulus (GPa) = 29.71304 41.38853 35.55079
#
# Velocity S-wave (km/s) = 3.54193 4.18029 3.87428
# Velocity P-wave (km/s) = 6.09392 7.84770 7.02575
#
# Compressibility (1/GPa) = 0.02068790
#
# Stress axis : x y z
#
# Youngs Moduli (GPa) = 48.93080 48.58256 92.52871
#
# Poissons Ratio (x) = 0.19127 0.57399
# Poissons Ratio (y) = 0.19264 0.50240
# Poissons Ratio (z) = 0.30354 0.26379
#
# Static dielectric constant tensor:
#      x y z
#    x 1.911310 0.010360 0.051790 
#    y 0.010360 1.934290 0.046540 
#    z 0.051790 0.046540 1.887630 
# 
# From -- ./inp_files/187.got.cif
#   From: 2010.05.17/outbox.cif.g08.bks.cpg/sg1_1_cif.got.tgz:187.got - 2010.05.17 20:27:59.
