data_PCOD9000115
_publ_section_title
;
Structure prediction by ZEFSAII (Michael W. Deem and Ramdas Pophale) SiO2 
 PCOD9000115
Probable space group: P 1
;
_chemical_formula_sum "Si O2"
_cell_formula_units_Z 8
_cell_length_a 5.444628
_cell_length_b 10.985642
_cell_length_c 13.728874
_cell_angle_alpha 29.456200
_cell_angle_beta 109.390813
_cell_angle_gamma 122.451569
_cell_volume 322.158770
_symmetry_space_group_name_H-M "P 1"
_symmetry_group_IT_number 1
_symmetry_cell_setting 'triclinic'
loop_
_space_group_symop_operation_xyz
x,y,z
loop_
_atom_site_type_symbol
_atom_site_label
_atom_site_fract_x
_atom_site_fract_y
_atom_site_fract_z
Si Si1 0.501350 0.491980 0.996260
Si Si2 0.875885 0.623209 0.515186
Si Si3 0.199162 0.106205 0.824060
Si Si4 0.182591 0.837669 0.752664
Si Si5 0.815346 0.337989 0.519739
Si Si6 0.940228 0.954830 0.463672
Si Si7 0.271101 0.401249 0.818098
Si Si8 0.914170 0.446945 0.226975
O O1 0.326002 0.638624 0.914711
O O2 0.317177 0.340922 0.977137
O O3 0.849102 0.707308 0.846925
O O4 0.596432 0.368745 0.186273
O O5 0.512554 0.395923 0.631488
O O6 0.957579 0.612980 0.420739
O O7 0.963893 0.919932 0.375755
O O8 0.014699 0.473179 0.704930
O O9 0.202692 0.140955 0.917148
O O10 0.931303 0.138554 0.720231
O O11 0.151255 0.796633 0.006326
O O12 0.144643 0.868339 0.611737
O O13 0.444631 0.154151 0.604345
O O14 0.887158 0.385977 0.381268
O O15 0.588444 0.698616 0.621051
O O16 0.002695 0.248843 0.316689
#
# Coordination Sequence:
#
# PCOD9000115 Si02
#       8
#     1   1   1   1   1   1   1   1
#     4  11  23  44  73 109 145 195 246 300 370 444
#     4  10  21  45  77  94 141 203 239 292 372 438
#     4  10  23  47  70 101 146 192 241 301 368 435
#     4  11  22  45  75 103 149 196 239 304 373 436
#     4  11  24  43  72 103 148 192 241 300 369 437
#     4  10  23  42  74 106 141 187 246 302 366 435
#     4   9  20  45  72  98 141 197 237 295 370 434
#     4  12  26  45  73 114 147 184 249 306 370 433
#
# _framework density 24.832474000000001
#
# number of rings (size 3 to 8) (size 9 to 14) (size 15 to 20)
#    0.000    1.500    2.500    2.250    1.750    1.000 
#   11.250    0.000    0.000    1.500    0.000    0.000 
#    0.000    0.000    0.000    0.000    0.000    0.000 
#
# Total GULP energy -44703.335500 kJ/mol
# GULP energy per Si atom -5587.916938 kJ/mol
# Density = 2.477595 g / cm^3
# Si number density = 24.832474 Si / 1000 Ang^3
#
#
#
# Elastic Constant Matrix: (Units=GPa)
#
#
# Indices 1 2 3 4 5 6 
#
# 1 75.6926 44.7382 26.8148 9.2862 4.1251 -5.7003
# 2 44.7382 233.6750 57.9727 17.4752 5.0968 -45.4877
# 3 26.8148 57.9727 85.8403 14.8564 -8.2514 -23.4995
# 4 9.2862 17.4752 14.8564 47.9207 -8.0216 3.7151
# 5 4.1251 5.0968 -8.2514 -8.0216 33.0685 -1.7955
# 6 -5.7003 -45.4877 -23.4995 3.7151 -1.7955 65.0373
#
#
#
# Elastic Compliance Matrix: (Units=1/GPa)
#
#
# Indices 1 2 3 4 5 6 
#
# 1 0.016190 -0.002233 -0.004034 -0.001472 -0.003126 -0.001602
# 2 -0.002233 0.006078 -0.002395 -0.001535 -0.001452 0.003237
# 3 -0.004034 -0.002395 0.016672 -0.003091 0.004516 0.004297
# 4 -0.001472 -0.001535 -0.003091 0.023822 0.005236 -0.003536
# 5 -0.003126 -0.001452 0.004516 0.005236 0.033303 0.000962
# 6 -0.001602 0.003237 0.004297 -0.003536 0.000962 0.019281
#
#
# Mechanical properties :
#
#
# Convention : Reuss Voigt Hill
#
# Bulk Modulus (GPa) = 46.25928 72.69547 59.47737
# Shear Modulus (GPa) = 35.74621 46.91746 41.33183
#
# Velocity S-wave (km/s) = 3.79818 4.35139 4.08416
# Velocity P-wave (km/s) = 6.15662 7.38810 6.80029
#
# Compressibility (1/GPa) = 0.02161728
#
# Stress axis : x y z
#
# Youngs Moduli (GPa) = 61.76548 164.53530 59.97913
#
# Poissons Ratio (x) = 0.36733 0.24197
# Poissons Ratio (y) = 0.13789 0.14364
# Poissons Ratio (z) = 0.24918 0.39404
#
# Static dielectric constant tensor:
#      x y z
#    x 1.964270 -0.064980 -0.047090 
#    y -0.064980 2.010250 0.014360 
#    z -0.047090 0.014360 2.000900 
# 
# From -- ./inp_files/7024.got.cif
#   From: 2010.05.17/outbox.cif.g08.bks.cpg/sg1_4_cif.got.tgz:7024.got - 2010.05.17 20:27:59.
