data_PCOD9000720
_publ_section_title
;
Structure prediction by ZEFSAII (Michael W. Deem and Ramdas Pophale) SiO2 
 PCOD9000720
Probable space group: P 1
;
_chemical_formula_sum "Si O2"
_cell_formula_units_Z 8
_cell_length_a 9.170099
_cell_length_b 6.881336
_cell_length_c 9.418536
_cell_angle_alpha 105.052491
_cell_angle_beta 137.955730
_cell_angle_gamma 95.849584
_cell_volume 342.120804
_symmetry_space_group_name_H-M "P 1"
_symmetry_group_IT_number 1
_symmetry_cell_setting 'triclinic'
loop_
_space_group_symop_operation_xyz
x,y,z
loop_
_atom_site_type_symbol
_atom_site_label
_atom_site_fract_x
_atom_site_fract_y
_atom_site_fract_z
Si Si1 0.361070 0.125000 0.745540
Si Si2 0.903712 0.660696 0.289990
Si Si3 0.778963 0.363862 0.904556
Si Si4 0.243112 0.278293 0.970149
Si Si5 0.468771 0.739840 0.079483
Si Si6 0.273536 0.520275 0.617661
Si Si7 0.666325 0.032142 0.527511
Si Si8 0.361923 0.545808 0.362181
O O1 0.279480 0.303477 0.650120
O O2 0.616651 0.174532 0.867407
O O3 0.360711 0.177410 0.921363
O O4 0.153447 0.885816 0.504196
O O5 0.999272 0.490908 0.391022
O O6 0.709680 0.699286 0.248636
O O7 0.787878 0.580140 0.035247
O O8 0.067477 0.448840 0.116170
O O9 0.661681 0.240733 0.649403
O O10 0.262543 0.513181 0.960911
O O11 0.388842 0.369199 0.240136
O O12 0.956486 0.102807 0.742990
O O13 0.539183 0.958840 0.267793
O O14 0.396253 0.723668 0.859508
O O15 0.393099 0.548481 0.554066
O O16 0.522495 0.798854 0.468025
#
# Coordination Sequence:
#
# PCOD9000720 Si02
#       8
#     1   1   1   1   1   1   1   1
#     4  11  21  40  67  98 126 171 216 264 324 377
#     4  11  21  40  65  97 128 167 209 268 317 380
#     4  10  19  36  62  93 126 164 209 260 315 373
#     4   9  18  36  64  90 127 171 206 262 325 368
#     4  10  20  40  66  92 132 169 213 268 319 379
#     4  10  22  41  64 101 126 165 222 264 314 388
#     4  10  19  38  67  92 130 178 202 265 334 368
#     4   9  20  37  61  95 129 169 207 261 324 375
#
# _framework density 23.383551000000001
#
# number of rings (size 3 to 8) (size 9 to 14) (size 15 to 20)
#    0.000    2.000    3.750    1.500    0.000    0.000 
#   11.250    1.250   27.500    0.000    0.000    0.000 
#    0.000    0.000    0.000    0.000    0.000    0.000 
#
# Total GULP energy -44566.488163 kJ/mol
# GULP energy per Si atom -5570.811020 kJ/mol
# Density = 2.333033 g / cm^3
# Si number density = 23.383551 Si / 1000 Ang^3
#
#
#
# Elastic Constant Matrix: (Units=GPa)
#
#
# Indices 1 2 3 4 5 6 
#
# 1 116.5192 33.6885 55.7196 4.2243 -20.6617 20.8877
# 2 33.6885 58.9937 57.3983 2.4168 -2.2308 6.6305
# 3 55.7196 57.3983 202.8388 17.2875 -43.5773 18.4031
# 4 4.2243 2.4168 17.2875 44.9852 9.0764 -1.1669
# 5 -20.6617 -2.2308 -43.5773 9.0764 71.6967 7.5843
# 6 20.8877 6.6305 18.4031 -1.1669 7.5843 34.7251
#
#
#
# Elastic Compliance Matrix: (Units=1/GPa)
#
#
# Indices 1 2 3 4 5 6 
#
# 1 0.012528 -0.006194 0.000139 -0.002009 0.004549 -0.007488
# 2 -0.006194 0.027708 -0.008376 0.003837 -0.006979 0.004527
# 3 0.000139 -0.008376 0.009591 -0.004748 0.006760 -0.005203
# 4 -0.002009 0.003837 -0.004748 0.025622 -0.007162 0.005417
# 5 0.004549 -0.006979 0.006760 -0.007162 0.021097 -0.009835
# 6 -0.007488 0.004527 -0.005203 0.005417 -0.009835 0.037525
#
#
# Mechanical properties :
#
#
# Convention : Reuss Voigt Hill
#
# Bulk Modulus (GPa) = 47.69772 74.66274 61.18023
# Shear Modulus (GPa) = 29.42528 45.71775 37.57151
#
# Velocity S-wave (km/s) = 3.55121 4.42648 4.01278
# Velocity P-wave (km/s) = 6.10385 7.62390 6.90583
#
# Compressibility (1/GPa) = 0.02096536
#
# Stress axis : x y z
#
# Youngs Moduli (GPa) = 79.81931 36.09114 104.26151
#
# Poissons Ratio (x) = 0.22353 -0.01448
# Poissons Ratio (y) = 0.49437 0.87332
# Poissons Ratio (z) = -0.01109 0.30231
#
# Static dielectric constant tensor:
#      x y z
#    x 1.957220 0.001750 -0.040540 
#    y 0.001750 1.918820 -0.022930 
#    z -0.040540 -0.022930 1.915570 
# 
# From -- ./inp_files/4005.got.cif
#   From: 2010.05.17/outbox.cif.g08.bks.cpg/sg1_3_cif.got.tgz:4005.got - 2010.05.17 20:27:59.
