data_PCOD9000757
_publ_section_title
;
Structure prediction by ZEFSAII (Michael W. Deem and Ramdas Pophale) SiO2 
 PCOD9000757
Probable space group: P 1
;
_chemical_formula_sum "Si O2"
_cell_formula_units_Z 8
_cell_length_a 9.196848
_cell_length_b 9.546724
_cell_length_c 9.467314
_cell_angle_alpha 63.376642
_cell_angle_beta 131.109421
_cell_angle_gamma 82.699504
_cell_volume 436.573275
_symmetry_space_group_name_H-M "P 1"
_symmetry_group_IT_number 1
_symmetry_cell_setting 'triclinic'
loop_
_space_group_symop_operation_xyz
x,y,z
loop_
_atom_site_type_symbol
_atom_site_label
_atom_site_fract_x
_atom_site_fract_y
_atom_site_fract_z
Si Si1 0.140670 0.518920 0.773260
Si Si2 0.388315 0.772141 0.482577
Si Si3 0.124727 0.610232 0.277090
Si Si4 0.704505 0.787744 0.154827
Si Si5 0.471148 0.234465 0.860934
Si Si6 0.330897 0.765329 0.770609
Si Si7 0.942967 0.528698 0.932865
Si Si8 0.989171 0.151106 0.214083
O O1 0.348799 0.339530 0.885577
O O2 0.212216 0.662874 0.786985
O O3 0.889857 0.650218 0.461245
O O4 0.093480 0.455285 0.917390
O O5 0.289200 0.682320 0.363841
O O6 0.426190 0.687260 0.705894
O O7 0.651983 0.703832 0.636383
O O8 0.167296 0.006867 0.263287
O O9 0.281286 0.391801 0.549500
O O10 0.881770 0.753881 0.154702
O O11 0.044312 0.604728 0.072487
O O12 0.542637 0.725924 0.022690
O O13 0.534222 0.020061 0.984413
O O14 0.725875 0.200060 0.016885
O O15 0.129653 0.005105 0.505176
O O16 0.965428 0.348237 0.103077
#
# Coordination Sequence:
#
# PCOD9000757 Si02
#       8
#     1   1   1   1   1   1   1   1
#     4  11  25  40  57  93 127 155 187 253 305 344
#     4  10  20  38  64  86 115 158 200 247 283 349
#     4  11  20  36  64  93 111 159 203 246 287 349
#     4  11  20  39  66  88 113 157 211 239 288 354
#     4  11  19  39  67  83 120 157 204 245 281 359
#     4  10  19  41  64  87 111 162 204 239 286 354
#     4  12  24  38  61  92 127 151 193 250 307 344
#     4  10  19  39  63  88 114 157 204 241 287 349
#
# _framework density 18.324528000000001
#
# number of rings (size 3 to 8) (size 9 to 14) (size 15 to 20)
#    0.750    0.500    7.500    0.750    0.000    2.000 
#    0.000    0.000    0.000    0.000    0.000    0.000 
#    0.000    0.000    0.000    0.000    0.000    0.000 
#
# Total GULP energy -44610.759918 kJ/mol
# GULP energy per Si atom -5576.344990 kJ/mol
# Density = 1.828282 g / cm^3
# Si number density = 18.324528 Si / 1000 Ang^3
#
#
#
# Elastic Constant Matrix: (Units=GPa)
#
#
# Indices 1 2 3 4 5 6 
#
# 1 61.3495 19.7126 36.7997 11.9577 16.0575 -6.5889
# 2 19.7126 95.4732 56.6143 18.1036 18.3077 1.8163
# 3 36.7997 56.6143 71.7384 13.9673 26.1192 -0.6490
# 4 11.9577 18.1036 13.9673 40.1383 2.5228 12.8015
# 5 16.0575 18.3077 26.1192 2.5228 20.2056 3.0441
# 6 -6.5889 1.8163 -0.6490 12.8015 3.0441 28.2342
#
#
#
# Elastic Compliance Matrix: (Units=1/GPa)
#
#
# Indices 1 2 3 4 5 6 
#
# 1 0.028214 0.005440 -0.012607 -0.009396 -0.011607 0.011456
# 2 0.005440 0.021406 -0.019200 -0.005216 0.001504 0.001654
# 3 -0.012607 -0.019200 0.050245 -0.004461 -0.037814 0.005548
# 4 -0.009396 -0.005216 -0.004461 0.037147 0.016422 -0.020573
# 5 -0.011607 0.001504 -0.037814 0.016422 0.107607 -0.022722
# 6 0.011456 0.001654 0.005548 -0.020573 -0.022722 0.049890
#
#
# Mechanical properties :
#
#
# Convention : Reuss Voigt Hill
#
# Bulk Modulus (GPa) = 21.21780 50.53492 35.87636
# Shear Modulus (GPa) = 13.77581 25.41125 19.59353
#
# Velocity S-wave (km/s) = 2.74482 3.72793 3.27349
# Velocity P-wave (km/s) = 4.65289 6.79467 5.82310
#
# Compressibility (1/GPa) = 0.04713024
#
# Stress axis : x y z
#
# Youngs Moduli (GPa) = 35.44340 46.71633 19.90230
#
# Poissons Ratio (x) = -0.25412 0.25091
# Poissons Ratio (y) = -0.19280 0.38213
# Poissons Ratio (z) = 0.44683 0.89697
#
# Static dielectric constant tensor:
#      x y z
#    x 1.611770 -0.005850 0.021560 
#    y -0.005850 1.630400 -0.014420 
#    z 0.021560 -0.014420 1.634060 
# 
# From -- ./inp_files/4224.got.cif
#   From: 2010.05.17/outbox.cif.g08.bks.cpg/sg1_3_cif.got.tgz:4224.got - 2010.05.17 20:27:59.
