data_PCOD9000427
_publ_section_title
;
Structure prediction by ZEFSAII (Michael W. Deem and Ramdas Pophale) SiO2 
 PCOD9000427
Probable space group: P 1
;
_chemical_formula_sum "Si O2"
_cell_formula_units_Z 8
_cell_length_a 8.602396
_cell_length_b 11.959382
_cell_length_c 15.004879
_cell_angle_alpha 28.246226
_cell_angle_beta 25.733921
_cell_angle_gamma 37.158017
_cell_volume 317.164148
_symmetry_space_group_name_H-M "P 1"
_symmetry_group_IT_number 1
_symmetry_cell_setting 'triclinic'
loop_
_space_group_symop_operation_xyz
x,y,z
loop_
_atom_site_type_symbol
_atom_site_label
_atom_site_fract_x
_atom_site_fract_y
_atom_site_fract_z
Si Si1 0.627870 0.909250 0.417930
Si Si2 0.744945 0.061651 0.958370
Si Si3 0.844467 0.326661 0.240262
Si Si4 0.568795 0.252525 0.618454
Si Si5 0.445830 0.844805 0.738996
Si Si6 0.743077 0.323539 0.953121
Si Si7 0.445208 0.818243 0.110197
Si Si8 0.551380 0.461312 0.669288
O O1 0.351685 0.848300 0.679979
O O2 0.578375 0.732707 0.487045
O O3 0.019180 0.845094 0.299687
O O4 0.608255 0.175367 0.210503
O O5 0.603305 0.197523 0.024054
O O6 0.846982 0.290707 0.683933
O O7 0.069360 0.898382 0.941161
O O8 0.534243 0.904705 0.104514
O O9 0.857055 0.304420 0.357569
O O10 0.589894 0.557142 0.198868
O O11 0.681091 0.074609 0.474538
O O12 0.187784 0.371347 0.968864
O O13 0.566240 0.423389 0.584133
O O14 0.174007 0.287728 0.754735
O O15 0.600770 0.996866 0.829458
O O16 0.632958 0.594603 0.833422
#
# Coordination Sequence:
#
# PCOD9000427 Si02
#       8
#     1   1   1   1   1   1   1   1
#     4  11  24  49  72 106 150 194 244 316 364 442
#     4  11  23  48  70 106 152 185 249 308 364 447
#     4  12  24  45  78 110 149 200 240 309 378 443
#     4  10  24  47  72 111 148 197 245 308 374 442
#     4  12  24  46  75 108 151 192 243 309 380 440
#     4  11  24  47  75 110 146 194 250 302 381 442
#     4  10  24  45  75 108 149 193 251 307 375 439
#     4  11  25  49  73 109 155 193 252 305 370 451
#
# _framework density 25.223531999999999
#
# number of rings (size 3 to 8) (size 9 to 14) (size 15 to 20)
#    0.000    1.000    2.500    4.500    1.750    2.000 
#    9.000    0.000    0.000    0.000    0.000    0.000 
#    0.000    0.000    0.000    0.000    0.000    0.000 
#
# Total GULP energy -44765.351158 kJ/mol
# GULP energy per Si atom -5595.668895 kJ/mol
# Density = 2.516612 g / cm^3
# Si number density = 25.223532 Si / 1000 Ang^3
#
#
#
# Elastic Constant Matrix: (Units=GPa)
#
#
# Indices 1 2 3 4 5 6 
#
# 1 99.7419 72.0553 35.1865 -3.1489 -2.4947 10.8869
# 2 72.0553 188.8806 66.8642 -39.1010 5.1593 7.6209
# 3 35.1865 66.8642 101.2409 -16.9911 0.3886 -3.6745
# 4 -3.1489 -39.1010 -16.9911 50.5884 4.1622 6.9859
# 5 -2.4947 5.1593 0.3886 4.1622 24.7671 -6.7313
# 6 10.8869 7.6209 -3.6745 6.9859 -6.7313 39.6620
#
#
#
# Elastic Compliance Matrix: (Units=1/GPa)
#
#
# Indices 1 2 3 4 5 6 
#
# 1 0.015245 -0.005947 -0.002185 -0.004357 0.003007 -0.001967
# 2 -0.005947 0.010707 -0.003848 0.007409 -0.004803 -0.002902
# 3 -0.002185 -0.003848 0.013431 0.000972 0.000905 0.002566
# 4 -0.004357 0.007409 0.000972 0.027102 -0.008268 -0.006314
# 5 0.003007 -0.004803 0.000905 -0.008268 0.045603 0.009377
# 6 -0.001967 -0.002902 0.002566 -0.006314 0.009377 0.029252
#
#
# Mechanical properties :
#
#
# Convention : Reuss Voigt Hill
#
# Bulk Modulus (GPa) = 64.83710 82.00839 73.42275
# Shear Modulus (GPa) = 29.33539 37.38731 33.36135
#
# Velocity S-wave (km/s) = 3.41400 3.85416 3.64074
# Velocity P-wave (km/s) = 6.42661 7.23805 6.84437
#
# Compressibility (1/GPa) = 0.01542327
#
# Stress axis : x y z
#
# Youngs Moduli (GPa) = 65.59376 93.39275 74.45415
#
# Poissons Ratio (x) = 0.55543 0.16268
# Poissons Ratio (y) = 0.39010 0.28651
# Poissons Ratio (z) = 0.14332 0.35939
#
# Static dielectric constant tensor:
#      x y z
#    x 2.044470 -0.022450 -0.046180 
#    y -0.022450 2.017860 0.037540 
#    z -0.046180 0.037540 2.007460 
# 
# From -- ./inp_files/7165.got.cif
#   From: 2010.05.17/outbox.cif.g08.bks.cpg/sg1_4_cif.got.tgz:7165.got - 2010.05.17 20:27:59.
