data_PCOD9000539
_publ_section_title
;
Structure prediction by ZEFSAII (Michael W. Deem and Ramdas Pophale) SiO2 
 PCOD9000539
Probable space group: P 1
;
_chemical_formula_sum "Si O2"
_cell_formula_units_Z 8
_cell_length_a 12.249592
_cell_length_b 6.607187
_cell_length_c 11.066427
_cell_angle_alpha 134.607148
_cell_angle_beta 35.562898
_cell_angle_gamma 134.091615
_cell_volume 353.684186
_symmetry_space_group_name_H-M "P 1"
_symmetry_group_IT_number 1
_symmetry_cell_setting 'triclinic'
loop_
_space_group_symop_operation_xyz
x,y,z
loop_
_atom_site_type_symbol
_atom_site_label
_atom_site_fract_x
_atom_site_fract_y
_atom_site_fract_z
Si Si1 0.483640 0.718070 0.563790
Si Si2 0.769949 0.299747 0.419253
Si Si3 0.194834 0.849097 0.708730
Si Si4 0.784413 0.439940 0.934453
Si Si5 0.707028 0.250726 0.175266
Si Si6 0.553423 0.799827 0.811756
Si Si7 0.452690 0.647420 0.199634
Si Si8 0.216418 0.422836 0.094199
O O1 0.281448 0.679611 0.661903
O O2 0.539815 0.415061 0.390841
O O3 0.486522 0.805245 0.736622
O O4 0.646651 0.987378 0.460159
O O5 0.789290 0.272878 0.245372
O O6 0.646343 0.531922 0.643105
O O7 0.991456 0.405989 0.312625
O O8 0.326364 0.820045 0.462450
O O9 0.969673 0.679451 0.810346
O O10 0.215997 0.165239 0.887808
O O11 0.727734 0.103112 0.799583
O O12 0.837975 0.422440 0.019885
O O13 0.583422 0.519118 0.119103
O O14 0.612672 0.903356 0.088657
O O15 0.354279 0.728389 0.039521
O O16 0.320255 0.412973 0.126066
#
# Coordination Sequence:
#
# PCOD9000539 Si02
#       8
#     1   1   1   1   1   1   1   1
#     4  11  22  45  71 100 150 182 233 296 352 420
#     4  11  25  47  70 106 144 184 239 298 348 427
#     4  12  25  46  74 104 140 196 232 288 365 414
#     4  12  27  45  71 107 141 188 237 294 359 418
#     4  11  21  46  70  97 147 183 227 301 350 410
#     4  11  26  45  70 105 146 186 237 296 353 423
#     4  12  26  49  70 104 152 180 242 300 340 431
#     4  12  26  47  76 103 142 197 233 287 367 417
#
# _framework density 22.619046999999998
#
# number of rings (size 3 to 8) (size 9 to 14) (size 15 to 20)
#    0.000    0.500    5.000    3.000    3.500    2.000 
#    6.750    0.000    0.000    0.000    0.000    0.000 
#    0.000    0.000    0.000    0.000    0.000    0.000 
#
# Total GULP energy -44671.516036 kJ/mol
# GULP energy per Si atom -5583.939504 kJ/mol
# Density = 2.256757 g / cm^3
# Si number density = 22.619047 Si / 1000 Ang^3
#
#
#
# Elastic Constant Matrix: (Units=GPa)
#
#
# Indices 1 2 3 4 5 6 
#
# 1 111.2956 41.6478 25.9262 -16.3894 -11.0644 1.1986
# 2 41.6478 91.2526 25.6079 -0.2230 -9.1364 6.0809
# 3 25.9262 25.6079 59.3490 -14.8515 -8.6943 6.0993
# 4 -16.3894 -0.2230 -14.8515 36.9905 2.9636 -1.0352
# 5 -11.0644 -9.1364 -8.6943 2.9636 33.3544 -7.0908
# 6 1.1986 6.0809 6.0993 -1.0352 -7.0908 40.8757
#
#
#
# Elastic Compliance Matrix: (Units=1/GPa)
#
#
# Indices 1 2 3 4 5 6 
#
# 1 0.012081 -0.004842 -0.001897 0.004431 0.002030 0.001113
# 2 -0.004842 0.014767 -0.005000 -0.004198 0.001254 -0.001197
# 3 -0.001897 -0.005000 0.022393 0.007848 0.002744 -0.001867
# 4 0.004431 -0.004198 0.007848 0.032163 -0.000481 0.000055
# 5 0.002030 0.001254 0.002744 -0.000481 0.032824 0.005026
# 6 0.001113 -0.001197 -0.001867 0.000055 0.005026 0.025762
#
#
# Mechanical properties :
#
#
# Convention : Reuss Voigt Hill
#
# Bulk Modulus (GPa) = 38.81417 49.80679 44.31048
# Shear Modulus (GPa) = 29.06053 33.49182 31.27618
#
# Velocity S-wave (km/s) = 3.58827 3.85215 3.72255
# Velocity P-wave (km/s) = 5.86215 6.46939 6.17324
#
# Compressibility (1/GPa) = 0.02576378
#
# Stress axis : x y z
#
# Youngs Moduli (GPa) = 82.77487 67.72068 44.65624
#
# Poissons Ratio (x) = 0.32788 0.08470
# Poissons Ratio (y) = 0.40076 0.22329
# Poissons Ratio (z) = 0.15701 0.33861
#
# Static dielectric constant tensor:
#      x y z
#    x 1.840530 0.014480 0.053420 
#    y 0.014480 1.804600 0.017290 
#    z 0.053420 0.017290 1.879420 
# 
# From -- ./inp_files/2423.got.cif
#   From: 2010.05.17/outbox.cif.g08.bks.cpg/sg1_2_cif.got.tgz:2423.got - 2010.05.17 20:27:59.
