data_PCOD9000168
_publ_section_title
;
Structure prediction by ZEFSAII (Michael W. Deem and Ramdas Pophale) SiO2 
 PCOD9000168
Probable space group: P 1
;
_chemical_formula_sum "Si O2"
_cell_formula_units_Z 8
_cell_length_a 6.702626
_cell_length_b 7.176851
_cell_length_c 11.294233
_cell_angle_alpha 58.117640
_cell_angle_beta 45.853170
_cell_angle_gamma 59.283956
_cell_volume 321.796971
_symmetry_space_group_name_H-M "P 1"
_symmetry_group_IT_number 1
_symmetry_cell_setting 'triclinic'
loop_
_space_group_symop_operation_xyz
x,y,z
loop_
_atom_site_type_symbol
_atom_site_label
_atom_site_fract_x
_atom_site_fract_y
_atom_site_fract_z
Si Si1 0.727530 0.719230 0.745520
Si Si2 0.464098 0.808066 0.069615
Si Si3 0.127509 0.247297 0.138056
Si Si4 0.165418 0.511317 0.449017
Si Si5 0.220361 0.624330 0.850256
Si Si6 0.594063 0.614937 0.491449
Si Si7 0.582198 0.166693 0.506135
Si Si8 0.968185 0.740839 0.134490
O O1 0.508503 0.576677 0.832007
O O2 0.032912 0.628899 0.587117
O O3 0.602022 0.959514 0.654049
O O4 0.705101 0.737437 0.891133
O O5 0.406487 0.617614 0.248938
O O6 0.183542 0.843803 0.086493
O O7 0.405985 0.045704 0.082111
O O8 0.084783 0.463178 0.173128
O O9 0.866012 0.137415 0.318428
O O10 0.122526 0.388786 0.970476
O O11 0.309343 0.251961 0.505857
O O12 0.886902 0.559269 0.465894
O O13 0.334890 0.703082 0.656995
O O14 0.987864 0.792884 0.970255
O O15 0.569679 0.383268 0.520819
O O16 0.662256 0.782521 0.307812
#
# Coordination Sequence:
#
# PCOD9000168 Si02
#       8
#     1   1   1   1   1   1   1   1
#     4  10  20  38  63  88 123 161 206 257 305 366
#     4  10  17  36  63  83 123 167 193 255 319 349
#     4   9  17  33  60  85 116 163 198 242 314 360
#     4  10  22  40  60  92 125 157 208 257 306 369
#     4   8  16  32  56  80 117 157 194 245 303 352
#     4   9  17  35  60  76 121 161 186 255 304 339
#     4  11  21  38  65  91 120 163 209 251 307 377
#     4   7  16  28  51  85 107 149 200 236 296 354
#
# _framework density 24.860396000000001
#
# number of rings (size 3 to 8) (size 9 to 14) (size 15 to 20)
#    0.750    2.000    1.250    0.750    0.000    0.000 
#    4.500    2.500    5.500    0.000    0.000    0.000 
#    0.000    0.000    0.000    0.000    0.000    0.000 
#
# Total GULP energy -44576.362765 kJ/mol
# GULP energy per Si atom -5572.045346 kJ/mol
# Density = 2.480381 g / cm^3
# Si number density = 24.860396 Si / 1000 Ang^3
#
#
#
# Elastic Constant Matrix: (Units=GPa)
#
#
# Indices 1 2 3 4 5 6 
#
# 1 57.5437 15.4017 19.2547 -0.1156 16.4315 -5.6801
# 2 15.4017 89.2689 46.6872 10.4743 0.8476 -11.5646
# 3 19.2547 46.6872 234.0857 34.7986 -0.3439 -17.2418
# 4 -0.1156 10.4743 34.7986 45.8631 4.9843 2.4494
# 5 16.4315 0.8476 -0.3439 4.9843 31.7973 3.7064
# 6 -5.6801 -11.5646 -17.2418 2.4494 3.7064 32.4005
#
#
#
# Elastic Compliance Matrix: (Units=1/GPa)
#
#
# Indices 1 2 3 4 5 6 
#
# 1 0.022549 -0.002916 -0.001499 0.003037 -0.012453 0.003309
# 2 -0.002916 0.013332 -0.001894 -0.001903 0.001049 0.003263
# 3 -0.001499 -0.001894 0.005532 -0.004022 0.001263 0.002164
# 4 0.003037 -0.001903 -0.004022 0.026060 -0.005221 -0.003660
# 5 -0.012453 0.001049 0.001263 -0.005221 0.039299 -0.005237
# 6 0.003309 0.003263 0.002164 -0.003660 -0.005237 0.034636
#
#
# Mechanical properties :
#
#
# Convention : Reuss Voigt Hill
#
# Bulk Modulus (GPa) = 34.72895 60.39838 47.56367
# Shear Modulus (GPa) = 30.55771 41.98249 36.27010
#
# Velocity S-wave (km/s) = 3.50976 4.11387 3.82377
# Velocity P-wave (km/s) = 5.51584 6.84931 6.21842
#
# Compressibility (1/GPa) = 0.02879442
#
# Stress axis : x y z
#
# Youngs Moduli (GPa) = 44.34845 75.00766 180.75986
#
# Poissons Ratio (x) = 0.21869 0.27100
# Poissons Ratio (y) = 0.12930 0.34243
# Poissons Ratio (z) = 0.06649 0.14209
#
# Static dielectric constant tensor:
#      x y z
#    x 2.083200 0.017310 -0.017950 
#    y 0.017310 1.901490 0.044380 
#    z -0.017950 0.044380 2.071010 
# 
# From -- ./inp_files/1327.got.cif
#   From: 2010.05.17/outbox.cif.g08.bks.cpg/sg1_1_cif.got.tgz:1327.got - 2010.05.17 20:27:59.
