data_PCOD9000647
_publ_section_title
;
Structure prediction by ZEFSAII (Michael W. Deem and Ramdas Pophale) SiO2 
 PCOD9000647
Probable space group: P 1
;
_chemical_formula_sum "Si O2"
_cell_formula_units_Z 8
_cell_length_a 7.928137
_cell_length_b 14.434585
_cell_length_c 11.220795
_cell_angle_alpha 30.392919
_cell_angle_beta 141.530371
_cell_angle_gamma 144.002303
_cell_volume 365.877680
_symmetry_space_group_name_H-M "P 1"
_symmetry_group_IT_number 1
_symmetry_cell_setting 'triclinic'
loop_
_space_group_symop_operation_xyz
x,y,z
loop_
_atom_site_type_symbol
_atom_site_label
_atom_site_fract_x
_atom_site_fract_y
_atom_site_fract_z
Si Si1 0.201530 0.988960 0.603260
Si Si2 0.858887 0.303534 0.305966
Si Si3 0.882692 0.209383 0.053987
Si Si4 0.161948 0.590470 0.934647
Si Si5 0.873552 0.332279 0.550597
Si Si6 0.163769 0.102216 0.095204
Si Si7 0.184344 0.008445 0.840232
Si Si8 0.866316 0.718264 0.205472
O O1 0.135598 0.801602 0.687140
O O2 0.176040 0.918148 0.804119
O O3 0.540436 0.157210 0.583915
O O4 0.979072 0.092310 0.339102
O O5 0.882961 0.397457 0.346604
O O6 0.510778 0.168118 0.236732
O O7 0.035940 0.164160 0.568848
O O8 0.991304 0.463540 0.096600
O O9 0.018192 0.157443 0.068011
O O10 0.030411 0.444058 0.911848
O O11 0.529418 0.125672 0.938714
O O12 0.510896 0.643232 0.083986
O O13 0.930248 0.520853 0.457698
O O14 0.105127 0.235778 0.811171
O O15 0.998004 0.870735 0.219012
O O16 0.011907 0.847376 0.024381
#
# Coordination Sequence:
#
# PCOD9000647 Si02
#       8
#     1   1   1   1   1   1   1   1
#     4  12  24  48  71 104 147 183 233 295 345 421
#     4  12  25  48  74 103 146 184 234 295 348 418
#     4  12  26  47  73 105 143 186 235 290 353 418
#     4  12  25  46  74 105 142 190 232 287 359 412
#     4  12  24  48  71 104 147 183 233 295 345 421
#     4  12  26  47  73 105 143 186 235 290 353 418
#     4  12  25  48  74 103 146 184 234 295 348 418
#     4  12  25  46  74 105 142 190 232 287 359 412
#
# _framework density 21.865231999999999
#
# number of rings (size 3 to 8) (size 9 to 14) (size 15 to 20)
#    0.000    0.000    7.500    1.500    0.000    2.000 
#    4.500    0.000    0.000    0.000    0.000    0.000 
#    0.000    0.000    0.000    0.000    0.000    0.000 
#
# Total GULP energy -44809.305150 kJ/mol
# GULP energy per Si atom -5601.163144 kJ/mol
# Density = 2.181547 g / cm^3
# Si number density = 21.865232 Si / 1000 Ang^3
#
#
#
# Elastic Constant Matrix: (Units=GPa)
#
#
# Indices 1 2 3 4 5 6 
#
# 1 99.6015 39.0630 1.7077 -7.8823 -12.8494 -13.7972
# 2 39.0630 108.7967 20.8636 -2.7230 8.2497 -27.8925
# 3 1.7077 20.8636 63.3835 -6.1809 18.1850 -11.0019
# 4 -7.8823 -2.7230 -6.1809 48.5616 -2.6594 16.7873
# 5 -12.8494 8.2497 18.1850 -2.6594 49.4259 -1.2112
# 6 -13.7972 -27.8925 -11.0019 16.7873 -1.2112 49.7508
#
#
#
# Elastic Compliance Matrix: (Units=1/GPa)
#
#
# Indices 1 2 3 4 5 6 
#
# 1 0.012630 -0.004765 0.000306 0.001925 0.004078 0.000349
# 2 -0.004765 0.013149 -0.002666 -0.002690 -0.002443 0.006309
# 3 0.000306 -0.002666 0.018967 0.001198 -0.006335 0.002226
# 4 0.001925 -0.002690 0.001198 0.024028 0.001586 -0.008779
# 5 0.004078 -0.002443 -0.006335 0.001586 0.024077 -0.001589
# 6 0.000349 0.006309 0.002226 -0.008779 -0.001589 0.027150
#
#
# Mechanical properties :
#
#
# Convention : Reuss Voigt Hill
#
# Bulk Modulus (GPa) = 32.79089 43.89448 38.34268
# Shear Modulus (GPa) = 34.62182 43.55749 39.08965
#
# Velocity S-wave (km/s) = 3.98354 4.46812 4.23277
# Velocity P-wave (km/s) = 6.01560 6.83648 6.43913
#
# Compressibility (1/GPa) = 0.03049628
#
# Stress axis : x y z
#
# Youngs Moduli (GPa) = 79.17372 76.05084 52.72304
#
# Poissons Ratio (x) = 0.36241 -0.01616
# Poissons Ratio (y) = 0.37729 0.14057
# Poissons Ratio (z) = -0.02426 0.20277
#
# Static dielectric constant tensor:
#      x y z
#    x 1.827060 -0.061840 -0.021150 
#    y -0.061840 1.765140 0.005280 
#    z -0.021150 0.005280 1.796270 
# 
# From -- ./inp_files/5366.got.cif
#   From: 2010.05.17/outbox.cif.g08.bks.cpg/sg1_3_cif.got.tgz:5366.got - 2010.05.17 20:27:59.
