data_PCOD9000049
_publ_section_title
;
Structure prediction by ZEFSAII (Michael W. Deem and Ramdas Pophale) SiO2 
 PCOD9000049
Probable space group: P 1
;
_chemical_formula_sum "Si O2"
_cell_formula_units_Z 8
_cell_length_a 5.016570
_cell_length_b 16.222919
_cell_length_c 5.410183
_cell_angle_alpha 117.883419
_cell_angle_beta 87.381954
_cell_angle_gamma 58.489310
_cell_volume 306.219507
_symmetry_space_group_name_H-M "P 1"
_symmetry_group_IT_number 1
_symmetry_cell_setting 'triclinic'
loop_
_space_group_symop_operation_xyz
x,y,z
loop_
_atom_site_type_symbol
_atom_site_label
_atom_site_fract_x
_atom_site_fract_y
_atom_site_fract_z
Si Si1 0.824000 0.813330 0.373610
Si Si2 0.186569 0.193589 0.625177
Si Si3 0.122625 0.995492 0.471226
Si Si4 0.532700 0.687185 0.324156
Si Si5 0.527374 0.408881 0.449577
Si Si6 0.320514 0.246998 0.192356
Si Si7 0.538790 0.471611 0.041394
Si Si8 0.986392 0.917638 0.881637
O O1 0.533153 0.895260 0.304741
O O2 0.797742 0.710017 0.287710
O O3 0.218694 0.751345 0.228540
O O4 0.732620 0.897712 0.735878
O O5 0.352767 0.172050 0.319842
O O6 0.397844 0.183450 0.838134
O O7 0.862663 0.332242 0.829305
O O8 0.071698 0.114709 0.578979
O O9 0.035587 0.979883 0.733961
O O10 0.956475 0.971530 0.223831
O O11 0.638167 0.558217 0.169960
O O12 0.321226 0.778961 0.686152
O O13 0.349137 0.484635 0.318034
O O14 0.918343 0.359261 0.358570
O O15 0.524170 0.297796 0.294942
O O16 0.367112 0.480945 0.805889
#
# Coordination Sequence:
#
# PCOD9000049 Si02
#       8
#     1   1   1   1   1   1   1   1
#     4   9  22  45  66 100 128 178 225 279 327 390
#     4  10  22  40  69  97 136 171 215 269 333 401
#     4  11  21  46  68 102 132 179 221 280 333 396
#     4   9  21  43  69  96 132 176 219 281 329 393
#     4  10  22  39  63  87 134 169 214 259 313 394
#     4  10  21  42  58  91 130 173 212 256 318 390
#     4  10  22  42  65 101 132 172 217 266 334 398
#     4   9  23  41  70  96 134 174 229 276 331 388
#
# _framework density 26.125053000000001
#
# number of rings (size 3 to 8) (size 9 to 14) (size 15 to 20)
#    0.750    1.500    0.000    1.500    0.000    8.000 
#   13.500    1.250    0.000    0.000    0.000    0.000 
#    0.000    0.000    0.000    0.000    0.000    0.000 
#
# Total GULP energy -44701.838597 kJ/mol
# GULP energy per Si atom -5587.729825 kJ/mol
# Density = 2.606559 g / cm^3
# Si number density = 26.125053 Si / 1000 Ang^3
#
#
#
# Elastic Constant Matrix: (Units=GPa)
#
#
# Indices 1 2 3 4 5 6 
#
# 1 86.6581 36.6002 36.4939 -0.9746 27.1370 20.9009
# 2 36.6002 136.4297 101.0037 1.0055 8.5394 40.3522
# 3 36.4939 101.0037 182.8423 -28.8932 26.8623 28.1502
# 4 -0.9746 1.0055 -28.8932 62.9879 7.5826 1.2460
# 5 27.1370 8.5394 26.8623 7.5826 33.1262 11.8569
# 6 20.9009 40.3522 28.1502 1.2460 11.8569 54.2631
#
#
#
# Elastic Compliance Matrix: (Units=1/GPa)
#
#
# Indices 1 2 3 4 5 6 
#
# 1 0.017966 -0.005347 0.002325 0.003336 -0.015703 -0.000795
# 2 -0.005347 0.018680 -0.010881 -0.006776 0.013125 -0.008899
# 3 0.002325 -0.010881 0.013797 0.008062 -0.013105 0.002717
# 4 0.003336 -0.006776 0.008062 0.021271 -0.013088 0.001943
# 5 -0.015703 0.013125 -0.013105 -0.013088 0.056498 -0.008957
# 6 -0.000795 -0.008899 0.002717 0.001943 -0.008957 0.025856
#
#
# Mechanical properties :
#
#
# Convention : Reuss Voigt Hill
#
# Bulk Modulus (GPa) = 44.17693 83.79173 63.98433
# Shear Modulus (GPa) = 26.39636 45.53094 35.96365
#
# Velocity S-wave (km/s) = 3.18210 4.17922 3.71428
# Velocity P-wave (km/s) = 5.51793 7.44519 6.55280
#
# Compressibility (1/GPa) = 0.02263625
#
# Stress axis : x y z
#
# Youngs Moduli (GPa) = 55.66131 53.53224 72.47982
#
# Poissons Ratio (x) = 0.28625 -0.16849
# Poissons Ratio (y) = 0.29764 0.78863
# Poissons Ratio (z) = -0.12939 0.58247
#
# Static dielectric constant tensor:
#      x y z
#    x 2.112700 -0.067870 -0.110570 
#    y -0.067870 2.090300 -0.018790 
#    z -0.110570 -0.018790 2.114930 
# 
# From -- ./inp_files/699.got.cif
#   From: 2010.05.17/outbox.cif.g08.bks.cpg/sg1_1_cif.got.tgz:699.got - 2010.05.17 20:27:59.
