data_PCOD9000969
_publ_section_title
;
Structure prediction by ZEFSAII (Michael W. Deem and Ramdas Pophale) SiO2 
 PCOD9000969
Probable space group: P 1
;
_chemical_formula_sum "Si O2"
_cell_formula_units_Z 8
_cell_length_a 14.408389
_cell_length_b 8.237517
_cell_length_c 5.808544
_cell_angle_alpha 121.999069
_cell_angle_beta 117.953374
_cell_angle_gamma 37.307278
_cell_volume 352.855140
_symmetry_space_group_name_H-M "P 1"
_symmetry_group_IT_number 1
_symmetry_cell_setting 'triclinic'
loop_
_space_group_symop_operation_xyz
x,y,z
loop_
_atom_site_type_symbol
_atom_site_label
_atom_site_fract_x
_atom_site_fract_y
_atom_site_fract_z
Si Si1 0.919400 0.635190 0.660310
Si Si2 0.078409 0.740126 0.746705
Si Si3 0.600840 0.876952 0.388453
Si Si4 0.317055 0.742070 0.053865
Si Si5 0.949589 0.654749 0.195810
Si Si6 0.348967 0.096252 0.610064
Si Si7 0.523417 0.633290 0.841009
Si Si8 0.601134 0.208677 0.279617
O O1 0.755782 0.752100 0.583086
O O2 0.959068 0.527390 0.356212
O O3 0.933048 0.850115 0.804047
O O4 0.001747 0.489710 0.893361
O O5 0.158685 0.835910 0.934424
O O6 0.041870 0.723862 0.429188
O O7 0.208943 0.418980 0.744178
O O8 0.465004 0.052928 0.545950
O O9 0.565468 0.071401 0.289127
O O10 0.615208 0.639808 0.135698
O O11 0.392941 0.680866 0.848909
O O12 0.296923 0.975175 0.322980
O O13 0.455778 0.450892 0.133185
O O14 0.769454 0.947642 0.173363
O O15 0.437160 0.901617 0.785463
O O16 0.617819 0.368956 0.588168
#
# Coordination Sequence:
#
# PCOD9000969 Si02
#       8
#     1   1   1   1   1   1   1   1
#     4   9  22  39  63  94 127 165 213 256 324 383
#     4  10  22  40  64  90 130 172 208 266 326 378
#     4  10  21  38  66  93 127 166 215 266 318 379
#     4  10  22  38  63  96 125 165 217 262 317 381
#     4   9  22  39  63  94 127 165 213 256 324 383
#     4  10  22  38  63  96 125 165 217 262 317 381
#     4  10  22  38  62  98 128 164 218 266 314 380
#     4  10  21  38  66  93 127 166 215 266 318 379
#
# _framework density 22.672194999999999
#
# number of rings (size 3 to 8) (size 9 to 14) (size 15 to 20)
#    0.750    1.500    0.000    1.500    8.750    5.000 
#    2.250    0.000    8.250    0.000    0.000    0.000 
#    0.000    0.000    0.000    0.000    0.000    0.000 
#
# Total GULP energy -44562.864063 kJ/mol
# GULP energy per Si atom -5570.358008 kJ/mol
# Density = 2.262059 g / cm^3
# Si number density = 22.672195 Si / 1000 Ang^3
#
#
#
# Elastic Constant Matrix: (Units=GPa)
#
#
# Indices 1 2 3 4 5 6 
#
# 1 115.5055 14.8221 51.1948 -23.6515 32.2550 -3.8196
# 2 14.8221 21.7427 20.3694 -12.4143 5.2622 -3.3465
# 3 51.1948 20.3694 90.8254 19.5783 -3.7111 -12.1908
# 4 -23.6515 -12.4143 19.5783 -13.5897 11.3555 13.4183
# 5 32.2550 5.2622 -3.7111 11.3555 36.8911 -12.0289
# 6 -3.8196 -3.3465 -12.1908 13.4183 -12.0289 21.4075
#
#
#
# Elastic Compliance Matrix: (Units=1/GPa)
#
#
# Indices 1 2 3 4 5 6 
#
# 1 0.009503 -0.009278 -0.001033 -0.008893 -0.003240 0.003410
# 2 -0.009278 0.049134 -0.001527 -0.008578 0.008601 0.015365
# 3 -0.001033 -0.001527 0.009043 0.010828 -0.002416 -0.003418
# 4 -0.008893 -0.008578 0.010828 -0.005021 0.016792 0.015821
# 5 -0.003240 0.008601 -0.002416 0.016792 0.024083 0.002397
# 6 0.003410 0.015365 -0.003418 0.015821 0.002397 0.039207
#
#
# Mechanical properties :
#
#
# Convention : Reuss Voigt Hill
#
# Bulk Modulus (GPa) = 22.72562 44.53844 33.63203
# Shear Modulus (GPa) = 30.43333 18.38761 24.41047
#
# Velocity S-wave (km/s) = 3.66774 2.85093 3.28482
# Velocity P-wave (km/s) = 5.28978 5.52488 5.40861
#
# Compressibility (1/GPa) = 0.04400320
#
# Stress axis : x y z
#
# Youngs Moduli (GPa) = 105.23045 20.35270 110.57713
#
# Poissons Ratio (x) = 0.18884 0.11427
# Poissons Ratio (y) = 0.97636 0.16881
# Poissons Ratio (z) = 0.10875 0.03107
#
# Static dielectric constant tensor:
#      x y z
#    x 1.865370 -0.018620 -0.001150 
#    y -0.018620 1.833440 -0.036440 
#    z -0.001150 -0.036440 1.941290 
# 
# From -- ./inp_files/1537.got.cif
#   From: 2010.05.17/outbox.cif.g08.bks.cpg/sg1_1_cif.got.tgz:1537.got - 2010.05.17 20:27:59.
