data_PCOD9000770
_publ_section_title
;
Structure prediction by ZEFSAII (Michael W. Deem and Ramdas Pophale) SiO2 
 PCOD9000770
Probable space group: P 1
;
_chemical_formula_sum "Si O2"
_cell_formula_units_Z 8
_cell_length_a 8.501527
_cell_length_b 9.804378
_cell_length_c 6.361528
_cell_angle_alpha 45.055405
_cell_angle_beta 61.881868
_cell_angle_gamma 60.867582
_cell_volume 320.792881
_symmetry_space_group_name_H-M "P 1"
_symmetry_group_IT_number 1
_symmetry_cell_setting 'triclinic'
loop_
_space_group_symop_operation_xyz
x,y,z
loop_
_atom_site_type_symbol
_atom_site_label
_atom_site_fract_x
_atom_site_fract_y
_atom_site_fract_z
Si Si1 0.899080 0.722250 0.768890
Si Si2 0.691686 0.918268 0.331251
Si Si3 0.796418 0.131446 0.656529
Si Si4 0.348469 0.054221 0.714414
Si Si5 0.081104 0.400771 0.268983
Si Si6 0.418493 0.801687 0.342107
Si Si7 0.557609 0.511264 0.224707
Si Si8 0.223335 0.726769 0.945765
O O1 0.874670 0.814791 0.452897
O O2 0.867982 0.918467 0.726616
O O3 0.722894 0.623377 0.001210
O O4 0.065546 0.526583 0.921746
O O5 0.532984 0.985325 0.534154
O O6 0.606148 0.784033 0.372697
O O7 0.719755 0.092588 0.974337
O O8 0.642607 0.278773 0.451350
O O9 0.942757 0.262122 0.468207
O O10 0.213315 0.909923 0.904477
O O11 0.245570 0.258259 0.448765
O O12 0.388484 0.996223 0.997428
O O13 0.068145 0.604562 0.188267
O O14 0.441166 0.608758 0.394078
O O15 0.259616 0.812592 0.600422
O O16 0.420268 0.577513 0.045904
#
# Coordination Sequence:
#
# PCOD9000770 Si02
#       8
#     1   1   1   1   1   1   1   1
#     4  11  22  46  63  94 137 170 218 272 317 390
#     4  11  21  41  73  94 129 173 221 272 315 383
#     4  11  25  41  67  97 136 174 213 267 331 388
#     4  10  22  43  66 100 129 168 222 276 316 386
#     4  11  26  43  65  95 141 175 207 270 339 386
#     4  10  19  40  69  97 127 162 224 273 317 368
#     4  10  21  38  67  99 123 169 222 268 313 385
#     4  10  22  40  66  96 132 169 215 272 322 386
#
# _framework density 24.938206999999998
#
# number of rings (size 3 to 8) (size 9 to 14) (size 15 to 20)
#    0.000    1.500    5.000    0.750    5.250    1.000 
#    0.000    5.000    0.000    0.000    0.000    0.000 
#    0.000    0.000    0.000    0.000    0.000    0.000 
#
# Total GULP energy -44551.504017 kJ/mol
# GULP energy per Si atom -5568.938002 kJ/mol
# Density = 2.488145 g / cm^3
# Si number density = 24.938207 Si / 1000 Ang^3
#
#
#
# Elastic Constant Matrix: (Units=GPa)
#
#
# Indices 1 2 3 4 5 6 
#
# 1 70.3942 35.5660 73.5454 -11.6997 6.1604 8.8127
# 2 35.5660 70.6789 64.1344 -24.7610 6.2575 7.1575
# 3 73.5454 64.1344 166.8682 -23.9993 36.4184 -10.4023
# 4 -11.6997 -24.7610 -23.9993 52.5797 -4.4155 2.9738
# 5 6.1604 6.2575 36.4184 -4.4155 65.4060 -25.4925
# 6 8.8127 7.1575 -10.4023 2.9738 -25.4925 45.7230
#
#
#
# Elastic Compliance Matrix: (Units=1/GPa)
#
#
# Indices 1 2 3 4 5 6 
#
# 1 0.029889 -0.002655 -0.013004 0.000031 0.001846 -0.007277
# 2 -0.002655 0.026505 -0.008302 0.008481 0.000691 -0.005693
# 3 -0.013004 -0.008302 0.016352 -0.000044 -0.005308 0.004570
# 4 0.000031 0.008481 -0.000044 0.023138 -0.000432 -0.003089
# 5 0.001846 0.000691 -0.005308 -0.000432 0.022148 0.010705
# 6 -0.007277 -0.005693 0.004570 -0.003089 0.010705 0.031373
#
#
# Mechanical properties :
#
#
# Convention : Reuss Voigt Hill
#
# Bulk Modulus (GPa) = 40.28847 72.71476 56.50161
# Shear Modulus (GPa) = 24.31864 41.72144 33.02004
#
# Velocity S-wave (km/s) = 3.12614 4.09466 3.64273
# Velocity P-wave (km/s) = 5.40562 7.18166 6.35598
#
# Compressibility (1/GPa) = 0.02482100
#
# Stress axis : x y z
#
# Youngs Moduli (GPa) = 33.45765 37.72866 61.15360
#
# Poissons Ratio (x) = 0.10019 0.79527
# Poissons Ratio (y) = 0.08885 0.50773
# Poissons Ratio (z) = 0.43510 0.31324
#
# Static dielectric constant tensor:
#      x y z
#    x 2.191460 0.023970 0.069830 
#    y 0.023970 1.989100 -0.005770 
#    z 0.069830 -0.005770 1.988170 
# 
# From -- ./inp_files/1610.got.cif
#   From: 2010.05.17/outbox.cif.g08.bks.cpg/sg1_1_cif.got.tgz:1610.got - 2010.05.17 20:27:59.
