data_PCOD9000297
_publ_section_title
;
Structure prediction by ZEFSAII (Michael W. Deem and Ramdas Pophale) SiO2 
 PCOD9000297
Probable space group: P 1
;
_chemical_formula_sum "Si O2"
_cell_formula_units_Z 8
_cell_length_a 9.106846
_cell_length_b 9.481618
_cell_length_c 7.096972
_cell_angle_alpha 115.978756
_cell_angle_beta 85.147842
_cell_angle_gamma 136.172087
_cell_volume 354.145372
_symmetry_space_group_name_H-M "P 1"
_symmetry_group_IT_number 1
_symmetry_cell_setting 'triclinic'
loop_
_space_group_symop_operation_xyz
x,y,z
loop_
_atom_site_type_symbol
_atom_site_label
_atom_site_fract_x
_atom_site_fract_y
_atom_site_fract_z
Si Si1 0.733400 0.023670 0.620330
Si Si2 0.923214 0.342196 0.126933
Si Si3 0.951787 0.639853 0.034447
Si Si4 0.415154 0.242741 0.926274
Si Si5 0.982921 0.898609 0.504510
Si Si6 0.791174 0.370869 0.556101
Si Si7 0.324634 0.468882 0.286092
Si Si8 0.505206 0.349006 0.373633
O O1 0.772225 0.193261 0.566288
O O2 0.914210 0.026775 0.585673
O O3 0.489289 0.748613 0.452957
O O4 0.743377 0.110239 0.875785
O O5 0.040283 0.565034 0.105125
O O6 0.080120 0.331678 0.181329
O O7 0.200206 0.040936 0.697346
O O8 0.016960 0.848970 0.264377
O O9 0.671842 0.406134 0.938304
O O10 0.975201 0.623305 0.800832
O O11 0.410962 0.426414 0.082767
O O12 0.403127 0.171371 0.102707
O O13 0.848265 0.375109 0.337688
O O14 0.754594 0.627061 0.453578
O O15 0.559015 0.282590 0.501982
O O16 0.349516 0.377862 0.413828
#
# Coordination Sequence:
#
# PCOD9000297 Si02
#       8
#     1   1   1   1   1   1   1   1
#     4  10  21  39  64  90 120 158 202 248 306 347
#     4  11  20  42  61  88 127 157 195 257 297 359
#     4  10  22  38  64  84 127 156 200 246 300 355
#     4   9  17  37  67  82 112 163 203 238 294 354
#     4  10  17  40  65  85 114 165 201 241 299 356
#     4  11  22  41  59  93 129 155 194 257 303 352
#     4   9  19  38  67  86 116 164 201 244 301 358
#     4   8  18  39  59  86 119 154 200 241 294 359
#
# _framework density 22.589594999999999
#
# number of rings (size 3 to 8) (size 9 to 14) (size 15 to 20)
#    0.750    1.500    5.000    0.000    0.000    2.000 
#    6.750    7.500    0.000    0.000    0.000    0.000 
#    0.000    0.000    0.000    0.000    0.000    0.000 
#
# Total GULP energy -44559.197307 kJ/mol
# GULP energy per Si atom -5569.899663 kJ/mol
# Density = 2.253818 g / cm^3
# Si number density = 22.589595 Si / 1000 Ang^3
#
#
#
# Elastic Constant Matrix: (Units=GPa)
#
#
# Indices 1 2 3 4 5 6 
#
# 1 81.8721 30.9547 21.3729 -5.6201 17.8627 -36.1316
# 2 30.9547 57.6073 44.7167 1.1332 7.0380 -22.8159
# 3 21.3729 44.7167 188.9845 -5.0178 11.9885 -14.4785
# 4 -5.6201 1.1332 -5.0178 36.2277 -4.7123 6.3976
# 5 17.8627 7.0380 11.9885 -4.7123 45.1869 -2.1022
# 6 -36.1316 -22.8159 -14.4785 6.3976 -2.1022 35.5141
#
#
#
# Elastic Compliance Matrix: (Units=1/GPa)
#
#
# Indices 1 2 3 4 5 6 
#
# 1 0.025808 -0.003575 0.000271 -0.001180 -0.008735 0.023767
# 2 -0.003575 0.029261 -0.005500 -0.004853 -0.001554 0.013702
# 3 0.000271 -0.005500 0.006587 0.001155 -0.000916 -0.000835
# 4 -0.001180 -0.004853 0.001155 0.029790 0.003604 -0.009001
# 5 -0.008735 -0.001554 -0.000916 0.003604 0.026008 -0.009368
# 6 0.023767 0.013702 -0.000835 -0.009001 -0.009368 0.061867
#
#
# Mechanical properties :
#
#
# Convention : Reuss Voigt Hill
#
# Bulk Modulus (GPa) = 22.70214 58.06139 40.38177
# Shear Modulus (GPa) = 23.62805 38.81370 31.22088
#
# Velocity S-wave (km/s) = 3.23766 4.14963 3.72168
# Velocity P-wave (km/s) = 4.90390 6.97981 6.03183
#
# Compressibility (1/GPa) = 0.04404870
#
# Stress axis : x y z
#
# Youngs Moduli (GPa) = 38.74716 34.17509 151.81357
#
# Poissons Ratio (x) = 0.12216 -0.04108
# Poissons Ratio (y) = 0.13850 0.83496
# Poissons Ratio (z) = -0.01049 0.18796
#
# Static dielectric constant tensor:
#      x y z
#    x 1.901740 0.040410 -0.048360 
#    y 0.040410 1.878280 -0.035150 
#    z -0.048360 -0.035150 1.863270 
# 
# From -- ./inp_files/3985.got.cif
#   From: 2010.05.17/outbox.cif.g08.bks.cpg/sg1_2_cif.got.tgz:3985.got - 2010.05.17 20:27:59.
