data_PCOD9000823
_publ_section_title
;
Structure prediction by ZEFSAII (Michael W. Deem and Ramdas Pophale) SiO2 
 PCOD9000823
Probable space group: P 1
;
_chemical_formula_sum "Si O2"
_cell_formula_units_Z 8
_cell_length_a 10.572767
_cell_length_b 8.267863
_cell_length_c 7.745507
_cell_angle_alpha 50.453947
_cell_angle_beta 125.241486
_cell_angle_gamma 140.705201
_cell_volume 325.686815
_symmetry_space_group_name_H-M "P 1"
_symmetry_group_IT_number 1
_symmetry_cell_setting 'triclinic'
loop_
_space_group_symop_operation_xyz
x,y,z
loop_
_atom_site_type_symbol
_atom_site_label
_atom_site_fract_x
_atom_site_fract_y
_atom_site_fract_z
Si Si1 0.561490 0.711990 0.121240
Si Si2 0.924125 0.914734 0.068936
Si Si3 0.898278 0.628146 0.772945
Si Si4 0.791327 0.965487 0.577510
Si Si5 0.692976 0.394956 0.440584
Si Si6 0.204185 0.847207 0.179692
Si Si7 0.600395 0.127738 0.105199
Si Si8 0.425611 0.741734 0.639180
O O1 0.803645 0.945494 0.097411
O O2 0.553917 0.467754 0.348553
O O3 0.510140 0.847397 0.122583
O O4 0.427563 0.629579 0.900070
O O5 0.779402 0.580222 0.207816
O O6 0.132811 0.974491 0.161034
O O7 0.903496 0.034868 0.799807
O O8 0.883664 0.866647 0.599175
O O9 0.883709 0.540830 0.623481
O O10 0.694840 0.363063 0.881103
O O11 0.067025 0.716644 0.987463
O O12 0.557525 0.722910 0.619905
O O13 0.774651 0.169289 0.329144
O O14 0.566861 0.072855 0.557736
O O15 0.229174 0.660874 0.444360
O O16 0.426842 0.074537 0.121050
#
# Coordination Sequence:
#
# PCOD9000823 Si02
#       8
#     1   1   1   1   1   1   1   1
#     4   9  19  38  65  86 121 169 202 249 304 374
#     4   8  19  38  59  85 125 158 197 252 304 349
#     4  11  22  42  63  90 128 166 200 255 316 363
#     4   9  19  35  62  85 125 158 204 243 302 375
#     4  10  20  38  69  84 120 167 206 243 310 367
#     4  10  24  37  61  98 124 155 211 260 300 369
#     4  11  21  39  67  89 124 167 202 251 320 357
#     4  10  20  37  62  91 119 164 206 247 308 362
#
# _framework density 24.563475
#
# number of rings (size 3 to 8) (size 9 to 14) (size 15 to 20)
#    0.750    1.500    2.500    0.000    7.000    1.000 
#    0.000    8.750    0.000    0.000    0.000    0.000 
#    0.000    0.000    0.000    0.000    0.000    0.000 
#
# Total GULP energy -44537.882823 kJ/mol
# GULP energy per Si atom -5567.235353 kJ/mol
# Density = 2.450757 g / cm^3
# Si number density = 24.563475 Si / 1000 Ang^3
#
#
#
# Elastic Constant Matrix: (Units=GPa)
#
#
# Indices 1 2 3 4 5 6 
#
# 1 85.3276 6.4093 9.6419 6.0682 17.2184 7.6602
# 2 6.4093 67.2947 24.5685 6.8572 2.8163 -2.2744
# 3 9.6419 24.5685 151.5943 18.6799 8.7358 2.3082
# 4 6.0682 6.8572 18.6799 44.2141 2.6871 0.4753
# 5 17.2184 2.8163 8.7358 2.6871 41.7262 4.2599
# 6 7.6602 -2.2744 2.3082 0.4753 4.2599 18.1520
#
#
#
# Elastic Compliance Matrix: (Units=1/GPa)
#
#
# Indices 1 2 3 4 5 6 
#
# 1 0.013289 -0.001025 -0.000178 -0.001247 -0.004833 -0.004547
# 2 -0.001025 0.016083 -0.002398 -0.001349 -0.000367 0.002874
# 3 -0.000178 -0.002398 0.007397 -0.002656 -0.001056 -0.000849
# 4 -0.001247 -0.001349 -0.002656 0.024143 -0.000409 0.000159
# 5 -0.004833 -0.000367 -0.001056 -0.000409 0.026652 -0.004116
# 6 -0.004547 0.002874 -0.000849 0.000159 -0.004116 0.058439
#
#
# Mechanical properties :
#
#
# Convention : Reuss Voigt Hill
#
# Bulk Modulus (GPa) = 33.82009 42.82846 38.32427
# Shear Modulus (GPa) = 30.66343 38.39158 34.52751
#
# Velocity S-wave (km/s) = 3.53701 3.95771 3.75326
# Velocity P-wave (km/s) = 5.52077 6.19341 5.86674
#
# Compressibility (1/GPa) = 0.02956823
#
# Stress axis : x y z
#
# Youngs Moduli (GPa) = 75.25184 62.17747 135.18147
#
# Poissons Ratio (x) = 0.06374 0.02402
# Poissons Ratio (y) = 0.07714 0.32412
# Poissons Ratio (z) = 0.01337 0.14908
#
# Static dielectric constant tensor:
#      x y z
#    x 2.020750 -0.040760 -0.007040 
#    y -0.040760 2.024400 0.072190 
#    z -0.007040 0.072190 1.985330 
# 
# From -- ./inp_files/4583.got.cif
#   From: 2010.05.17/outbox.cif.g08.bks.cpg/sg1_3_cif.got.tgz:4583.got - 2010.05.17 20:27:59.
