data_PCOD9000053
_publ_section_title
;
Structure prediction by ZEFSAII (Michael W. Deem and Ramdas Pophale) SiO2 
 PCOD9000053
Probable space group: P 1
;
_chemical_formula_sum "Si O2"
_cell_formula_units_Z 8
_cell_length_a 11.330573
_cell_length_b 14.239495
_cell_length_c 5.337996
_cell_angle_alpha 58.835067
_cell_angle_beta 49.928610
_cell_angle_gamma 29.261298
_cell_volume 319.896971
_symmetry_space_group_name_H-M "P 1"
_symmetry_group_IT_number 1
_symmetry_cell_setting 'triclinic'
loop_
_space_group_symop_operation_xyz
x,y,z
loop_
_atom_site_type_symbol
_atom_site_label
_atom_site_fract_x
_atom_site_fract_y
_atom_site_fract_z
Si Si1 0.322640 0.387720 0.659960
Si Si2 0.694379 0.840804 0.346415
Si Si3 0.219803 0.810924 0.831048
Si Si4 0.851762 0.540953 0.832848
Si Si5 0.431741 0.889755 0.257959
Si Si6 0.087683 0.175258 0.948812
Si Si7 0.921217 0.026444 0.419241
Si Si8 0.251834 0.569566 0.009827
O O1 0.086724 0.437600 0.854283
O O2 0.614835 0.164585 0.622496
O O3 0.339711 0.447033 0.296828
O O4 0.282726 0.490306 0.812947
O O5 0.645995 0.854799 0.098732
O O6 0.850024 0.637954 0.496446
O O7 0.926402 0.789923 0.170645
O O8 0.388604 0.025659 0.621978
O O9 0.377119 0.833316 0.623441
O O10 0.391450 0.606215 0.786602
O O11 0.024931 0.955938 0.660233
O O12 0.095992 0.859609 0.204922
O O13 0.904409 0.389105 0.872676
O O14 0.562267 0.734118 0.088060
O O15 0.172327 0.106338 0.218254
O O16 0.945564 0.141128 0.138947
#
# Coordination Sequence:
#
# PCOD9000053 Si02
#       8
#     1   1   1   1   1   1   1   1
#     4  11  24  43  62  95 129 160 214 260 307 385
#     4  10  21  42  62  90 127 158 215 261 303 381
#     4  11  24  42  66  91 126 170 206 258 321 367
#     4  10  23  40  64  92 124 167 207 260 318 366
#     4  10  21  42  62  90 127 158 215 261 303 381
#     4  10  23  40  64  92 124 167 207 260 318 366
#     4  11  24  43  62  95 129 160 214 260 307 385
#     4  11  24  42  66  91 126 170 206 258 321 367
#
# _framework density 25.008049
#
# number of rings (size 3 to 8) (size 9 to 14) (size 15 to 20)
#    0.000    1.500    2.500    1.500    3.500    3.000 
#    0.000    0.000    0.000    0.000    0.000    0.000 
#    0.000    0.000    0.000    0.000    0.000    0.000 
#
# Total GULP energy -44614.987550 kJ/mol
# GULP energy per Si atom -5576.873444 kJ/mol
# Density = 2.495113 g / cm^3
# Si number density = 25.008049 Si / 1000 Ang^3
#
#
#
# Elastic Constant Matrix: (Units=GPa)
#
#
# Indices 1 2 3 4 5 6 
#
# 1 100.6957 6.2231 4.3404 -4.7948 18.5719 -5.0686
# 2 6.2231 59.1514 3.0858 -7.3684 -2.3791 8.5655
# 3 4.3404 3.0858 39.0541 -6.5206 9.0681 3.3900
# 4 -4.7948 -7.3684 -6.5206 23.0074 4.5793 -11.1908
# 5 18.5719 -2.3791 9.0681 4.5793 31.6929 -2.0903
# 6 -5.0686 8.5655 3.3900 -11.1908 -2.0903 43.1067
#
#
#
# Elastic Compliance Matrix: (Units=1/GPa)
#
#
# Indices 1 2 3 4 5 6 
#
# 1 0.011804 -0.001346 0.001298 0.005209 -0.007976 0.002519
# 2 -0.001346 0.017993 -0.000826 0.003627 0.001677 -0.002646
# 3 0.001298 -0.000826 0.029829 0.010741 -0.010894 0.000231
# 4 0.005209 0.003627 0.010741 0.057950 -0.013340 0.013444
# 5 -0.007976 0.001677 -0.010894 -0.013340 0.041273 -0.001876
# 6 0.002519 -0.002646 0.000231 0.013444 -0.001876 0.027401
#
#
# Mechanical properties :
#
#
# Convention : Reuss Voigt Hill
#
# Bulk Modulus (GPa) = 17.27818 25.13332 21.20575
# Shear Modulus (GPa) = 24.12044 31.91153 28.01599
#
# Velocity S-wave (km/s) = 3.10902 3.57606 3.35069
# Velocity P-wave (km/s) = 4.45107 5.20796 4.84432
#
# Compressibility (1/GPa) = 0.05787648
#
# Stress axis : x y z
#
# Youngs Moduli (GPa) = 84.71637 55.57755 33.52402
#
# Poissons Ratio (x) = 0.07482 -0.04350
# Poissons Ratio (y) = 0.11404 0.02770
# Poissons Ratio (z) = -0.10993 0.04592
#
# Static dielectric constant tensor:
#      x y z
#    x 1.968670 -0.019150 -0.032220 
#    y -0.019150 1.927180 0.053400 
#    z -0.032220 0.053400 2.113760 
# 
# From -- ./inp_files/454.got.cif
#   From: 2010.05.17/outbox.cif.g08.bks.cpg/sg1_1_cif.got.tgz:454.got - 2010.05.17 20:27:59.
