data_PCOD9000431
_publ_section_title
;
Structure prediction by ZEFSAII (Michael W. Deem and Ramdas Pophale) SiO2 
 PCOD9000431
Probable space group: P 1
;
_chemical_formula_sum "Si O2"
_cell_formula_units_Z 8
_cell_length_a 8.007459
_cell_length_b 9.764940
_cell_length_c 5.239040
_cell_angle_alpha 76.080698
_cell_angle_beta 116.448926
_cell_angle_gamma 110.068130
_cell_volume 342.627233
_symmetry_space_group_name_H-M "P 1"
_symmetry_group_IT_number 1
_symmetry_cell_setting 'triclinic'
loop_
_space_group_symop_operation_xyz
x,y,z
loop_
_atom_site_type_symbol
_atom_site_label
_atom_site_fract_x
_atom_site_fract_y
_atom_site_fract_z
Si Si1 0.608500 0.005910 0.543460
Si Si2 0.808779 0.685342 0.132340
Si Si3 0.997218 0.932287 0.802385
Si Si4 0.480670 0.469048 0.719030
Si Si5 0.240770 0.434227 0.064891
Si Si6 0.057497 0.653088 0.722166
Si Si7 0.495544 0.828587 0.049891
Si Si8 0.359812 0.182922 0.046830
O O1 0.518130 0.136510 0.347142
O O2 0.502599 0.878652 0.326016
O O3 0.832976 0.018161 0.628006
O O4 0.567192 0.957549 0.830226
O O5 0.640483 0.728863 0.152946
O O6 0.940036 0.601145 0.407880
O O7 0.685880 0.582665 0.870295
O O8 0.952586 0.840881 0.075983
O O9 0.970537 0.789538 0.672363
O O10 0.208425 0.042903 0.884570
O O11 0.391162 0.479957 0.378679
O O12 0.329860 0.491987 0.821961
O O13 0.471053 0.301267 0.861089
O O14 0.226479 0.262551 0.090250
O O15 0.063305 0.505638 0.945905
O O16 0.281339 0.743112 0.860207
#
# Coordination Sequence:
#
# PCOD9000431 Si02
#       8
#     1   1   1   1   1   1   1   1
#     4  11  24  41  66 102 136 182 219 290 338 416
#     4  11  25  43  70 108 138 183 231 293 338 422
#     4  11  25  40  73 107 139 168 245 283 351 394
#     4  10  25  46  70  95 143 185 232 271 356 405
#     4  10  26  44  71  96 136 192 226 277 341 421
#     4  12  24  41  73 105 137 183 231 292 341 415
#     4  11  23  41  67  99 145 173 226 279 358 394
#     4  10  24  46  70  96 142 186 224 283 349 411
#
# _framework density 23.348991999999999
#
# number of rings (size 3 to 8) (size 9 to 14) (size 15 to 20)
#    0.750    0.500    3.750    0.750    8.750    2.000 
#    0.000    0.000    0.000    0.000    0.000    0.000 
#    0.000    0.000    0.000    0.000    0.000    0.000 
#
# Total GULP energy -44544.026546 kJ/mol
# GULP energy per Si atom -5568.003318 kJ/mol
# Density = 2.329585 g / cm^3
# Si number density = 23.348992 Si / 1000 Ang^3
#
#
#
# Elastic Constant Matrix: (Units=GPa)
#
#
# Indices 1 2 3 4 5 6 
#
# 1 39.5217 10.9105 18.1525 -2.9688 9.9692 -4.8250
# 2 10.9105 101.5241 36.3072 -10.8772 10.2459 -10.7568
# 3 18.1525 36.3072 139.6673 -14.4530 23.5931 -12.0116
# 4 -2.9688 -10.8772 -14.4530 34.7387 -11.1619 2.9325
# 5 9.9692 10.2459 23.5931 -11.1619 45.0223 -2.3365
# 6 -4.8250 -10.7568 -12.0116 2.9325 -2.3365 31.0213
#
#
#
# Elastic Compliance Matrix: (Units=1/GPa)
#
#
# Indices 1 2 3 4 5 6 
#
# 1 0.028257 -0.001526 -0.002324 -0.000781 -0.004746 0.002682
# 2 -0.001526 0.011362 -0.002241 0.002144 -0.000407 0.002601
# 3 -0.002324 -0.002241 0.008909 0.001636 -0.003139 0.001920
# 4 -0.000781 0.002144 0.001636 0.032360 0.006783 -0.001293
# 5 -0.004746 -0.000407 -0.003139 0.006783 0.026643 -0.000729
# 6 0.002682 0.002601 0.001920 -0.001293 -0.000729 0.034366
#
#
# Mechanical properties :
#
#
# Convention : Reuss Voigt Hill
#
# Bulk Modulus (GPa) = 27.51355 45.71708 36.61531
# Shear Modulus (GPa) = 30.08507 36.51266 33.29887
#
# Velocity S-wave (km/s) = 3.59346 3.95875 3.78052
# Velocity P-wave (km/s) = 5.38762 6.36538 5.89680
#
# Compressibility (1/GPa) = 0.03634573
#
# Stress axis : x y z
#
# Youngs Moduli (GPa) = 35.38901 88.01519 112.24475
#
# Poissons Ratio (x) = 0.13431 0.26090
# Poissons Ratio (y) = 0.05400 0.25152
# Poissons Ratio (z) = 0.08226 0.19723
#
# Static dielectric constant tensor:
#      x y z
#    x 2.037970 -0.080820 -0.091500 
#    y -0.080820 1.948790 -0.024150 
#    z -0.091500 -0.024150 1.933360 
# 
# From -- ./inp_files/1527.got.cif
#   From: 2010.05.17/outbox.cif.g08.bks.cpg/sg1_1_cif.got.tgz:1527.got - 2010.05.17 20:27:59.
