data_PCOD9000295
_publ_section_title
;
Structure prediction by ZEFSAII (Michael W. Deem and Ramdas Pophale) SiO2 
 PCOD9000295
Probable space group: P 1
;
_chemical_formula_sum "Si O2"
_cell_formula_units_Z 8
_cell_length_a 4.974747
_cell_length_b 7.786787
_cell_length_c 11.982641
_cell_angle_alpha 38.159950
_cell_angle_beta 89.072526
_cell_angle_gamma 93.806048
_cell_volume 284.396476
_symmetry_space_group_name_H-M "P 1"
_symmetry_group_IT_number 1
_symmetry_cell_setting 'triclinic'
loop_
_space_group_symop_operation_xyz
x,y,z
loop_
_atom_site_type_symbol
_atom_site_label
_atom_site_fract_x
_atom_site_fract_y
_atom_site_fract_z
Si Si1 0.786920 0.446390 0.731450
Si Si2 0.540594 0.278992 0.469056
Si Si3 0.008443 0.198450 0.245177
Si Si4 0.423803 0.680459 0.066003
Si Si5 0.062334 0.506473 0.460872
Si Si6 0.183446 0.072408 0.024907
Si Si7 0.654233 0.476691 0.944740
Si Si8 0.460976 0.879179 0.500618
O O1 0.370983 0.966765 0.977766
O O2 0.494211 0.556242 0.650728
O O3 0.927839 0.179117 0.909522
O O4 0.815680 0.610581 0.767944
O O5 0.547841 0.500265 0.253307
O O6 0.345862 0.390079 0.504528
O O7 0.836715 0.292057 0.509440
O O8 0.402529 0.984780 0.570559
O O9 0.945197 0.523236 0.576711
O O10 0.761825 0.034685 0.397266
O O11 0.132039 0.499558 0.137895
O O12 0.853872 0.266957 0.099502
O O13 0.574875 0.661455 0.955743
O O14 0.261775 0.021931 0.347658
O O15 0.090598 0.797988 0.242120
O O16 0.387017 0.290628 0.988040
#
# Coordination Sequence:
#
# PCOD9000295 Si02
#       8
#     1   1   1   1   1   1   1   1
#     4  12  32  47  75 127 171 211 273 333 419 484
#     4  10  22  49  83 117 148 222 275 327 413 475
#     4  11  23  48  86 118 150 217 268 338 401 481
#     4  10  24  49  87 115 160 213 280 334 410 482
#     4  11  28  52  81 114 167 212 270 341 406 483
#     4  11  29  52  82 124 167 218 274 339 412 488
#     4  12  27  51  82 127 161 213 280 333 415 485
#     4  11  25  46  82 116 164 202 276 333 402 486
#
# _framework density 28.129745
#
# number of rings (size 3 to 8) (size 9 to 14) (size 15 to 20)
#    0.000    1.000    2.500    3.000   10.500    1.000 
#    4.500    0.000    0.000    0.000    0.000    0.000 
#    0.000    0.000    0.000    0.000    0.000    0.000 
#
# Total GULP energy -44709.785977 kJ/mol
# GULP energy per Si atom -5588.723247 kJ/mol
# Density = 2.806572 g / cm^3
# Si number density = 28.129745 Si / 1000 Ang^3
#
#
#
# Elastic Constant Matrix: (Units=GPa)
#
#
# Indices 1 2 3 4 5 6 
#
# 1 159.1601 35.6917 50.6509 0.6419 33.8453 6.8463
# 2 35.6917 186.9044 77.6058 29.8360 14.7351 -26.1482
# 3 50.6509 77.6058 128.8550 17.0159 20.8016 -12.8534
# 4 0.6419 29.8360 17.0159 58.7130 -16.7549 -5.0337
# 5 33.8453 14.7351 20.8016 -16.7549 45.3933 -13.9934
# 6 6.8463 -26.1482 -12.8534 -5.0337 -13.9934 53.3893
#
#
#
# Elastic Compliance Matrix: (Units=1/GPa)
#
#
# Indices 1 2 3 4 5 6 
#
# 1 0.008795 -0.000505 -0.002171 -0.001604 -0.007205 -0.003937
# 2 -0.000505 0.007905 -0.003808 -0.002896 -0.000725 0.002556
# 3 -0.002171 -0.003808 0.011788 -0.002416 -0.003398 0.000133
# 4 -0.001604 -0.002896 -0.002416 0.023258 0.013001 0.003806
# 5 -0.007205 -0.000725 -0.003398 0.013001 0.037308 0.010755
# 6 -0.003937 0.002556 0.000133 0.003806 0.010755 0.023697
#
#
# Mechanical properties :
#
#
# Convention : Reuss Voigt Hill
#
# Bulk Modulus (GPa) = 64.43068 89.20180 76.81624
# Shear Modulus (GPa) = 38.19947 52.23053 45.21500
#
# Velocity S-wave (km/s) = 3.68907 4.31370 4.01356
# Velocity P-wave (km/s) = 6.41094 7.52266 6.98894
#
# Compressibility (1/GPa) = 0.01552056
#
# Stress axis : x y z
#
# Youngs Moduli (GPa) = 113.70150 126.50286 84.82983
#
# Poissons Ratio (x) = 0.06387 0.18416
# Poissons Ratio (y) = 0.05741 0.32303
# Poissons Ratio (z) = 0.24684 0.48172
#
# Static dielectric constant tensor:
#      x y z
#    x 2.213690 -0.047880 -0.075670 
#    y -0.047880 2.299460 -0.044580 
#    z -0.075670 -0.044580 2.313740 
# 
# From -- ./inp_files/1358.got.cif
#   From: 2010.05.17/outbox.cif.g08.bks.cpg/sg1_1_cif.got.tgz:1358.got - 2010.05.17 20:27:59.
