data_PCOD9000651
_publ_section_title
;
Structure prediction by ZEFSAII (Michael W. Deem and Ramdas Pophale) SiO2 
 PCOD9000651
Probable space group: P 1
;
_chemical_formula_sum "Si O2"
_cell_formula_units_Z 8
_cell_length_a 5.451802
_cell_length_b 10.520687
_cell_length_c 7.742737
_cell_angle_alpha 134.791543
_cell_angle_beta 80.986421
_cell_angle_gamma 94.124583
_cell_volume 310.804369
_symmetry_space_group_name_H-M "P 1"
_symmetry_group_IT_number 1
_symmetry_cell_setting 'triclinic'
loop_
_space_group_symop_operation_xyz
x,y,z
loop_
_atom_site_type_symbol
_atom_site_label
_atom_site_fract_x
_atom_site_fract_y
_atom_site_fract_z
Si Si1 0.887440 0.607600 0.200690
Si Si2 0.547401 0.885445 0.034401
Si Si3 0.266557 0.548180 0.795315
Si Si4 0.071259 0.016948 0.980601
Si Si5 0.299420 0.163999 0.554122
Si Si6 0.897541 0.998362 0.623795
Si Si7 0.097663 0.439341 0.371160
Si Si8 0.533991 0.325098 0.001596
O O1 0.962935 0.531290 0.308841
O O2 0.783942 0.810535 0.420775
O O3 0.691554 0.469602 0.025703
O O4 0.115122 0.603851 0.038152
O O5 0.820937 0.927585 0.984374
O O6 0.489427 0.004135 0.325498
O O7 0.488727 0.679118 0.872781
O O8 0.322243 0.957586 0.999327
O O9 0.330920 0.335086 0.594267
O O10 0.087660 0.557377 0.656566
O O11 0.028082 0.233688 0.208430
O O12 0.093411 0.962862 0.724413
O O13 0.339410 0.249522 0.818272
O O14 0.032834 0.078896 0.519623
O O15 0.708349 0.152891 0.862576
O O16 0.388552 0.418008 0.263344
#
# Coordination Sequence:
#
# PCOD9000651 Si02
#       8
#     1   1   1   1   1   1   1   1
#     4  12  27  49  75 113 151 204 261 326 391 470
#     4  12  30  49  77 116 156 207 261 325 395 469
#     4  12  26  51  75 113 157 202 266 323 392 474
#     4  12  26  52  78 112 157 205 262 324 393 470
#     4  12  26  47  75 107 154 209 255 325 393 464
#     4  12  26  48  77 107 156 203 262 323 395 463
#     4  12  26  49  80 111 157 205 262 323 400 465
#     4  12  25  47  75 113 150 211 257 323 395 461
#
# _framework density 25.739664999999999
#
# number of rings (size 3 to 8) (size 9 to 14) (size 15 to 20)
#    0.000    0.000    7.500    1.500    5.250    3.000 
#    0.000    0.000    0.000    0.000    0.000    0.000 
#    0.000    0.000    0.000    0.000    0.000    0.000 
#
# Total GULP energy -44827.210566 kJ/mol
# GULP energy per Si atom -5603.401321 kJ/mol
# Density = 2.568108 g / cm^3
# Si number density = 25.739665 Si / 1000 Ang^3
#
#
#
# Elastic Constant Matrix: (Units=GPa)
#
#
# Indices 1 2 3 4 5 6 
#
# 1 101.1659 59.3422 7.3091 15.8476 -0.3649 15.7870
# 2 59.3422 147.0091 46.3198 28.3334 5.2679 23.0153
# 3 7.3091 46.3198 81.0057 26.9970 11.1075 -2.7066
# 4 15.8476 28.3334 26.9970 54.3387 -0.9148 10.6802
# 5 -0.3649 5.2679 11.1075 -0.9148 21.8932 5.7825
# 6 15.7870 23.0153 -2.7066 10.6802 5.7825 49.6745
#
#
#
# Elastic Compliance Matrix: (Units=1/GPa)
#
#
# Indices 1 2 3 4 5 6 
#
# 1 0.013568 -0.005760 0.002647 -0.002041 0.000479 -0.001116
# 2 -0.005760 0.011823 -0.006400 -0.000487 0.001355 -0.004049
# 3 0.002647 -0.006400 0.020500 -0.009073 -0.010902 0.006461
# 4 -0.002041 -0.000487 -0.009073 0.025032 0.007277 -0.005849
# 5 0.000479 0.001355 -0.010902 0.007277 0.053618 -0.009180
# 6 -0.001116 -0.004049 0.006461 -0.005849 -0.009180 0.025040
#
#
# Mechanical properties :
#
#
# Convention : Reuss Voigt Hill
#
# Bulk Modulus (GPa) = 37.22292 61.68031 49.45162
# Shear Modulus (GPa) = 28.15922 39.59527 33.87725
#
# Velocity S-wave (km/s) = 3.31116 3.92637 3.63181
# Velocity P-wave (km/s) = 5.39547 6.67610 6.06965
#
# Compressibility (1/GPa) = 0.02686517
#
# Stress axis : x y z
#
# Youngs Moduli (GPa) = 73.70432 84.58201 48.78030
#
# Poissons Ratio (x) = 0.48717 -0.12910
# Poissons Ratio (y) = 0.42452 0.31217
# Poissons Ratio (z) = -0.19506 0.54129
#
# Static dielectric constant tensor:
#      x y z
#    x 2.014330 -0.064860 0.020070 
#    y -0.064860 2.078510 -0.038260 
#    z 0.020070 -0.038260 1.991570 
# 
# From -- ./inp_files/1701.got.cif
#   From: 2010.05.17/outbox.cif.g08.bks.cpg/sg1_1_cif.got.tgz:1701.got - 2010.05.17 20:27:59.
