data_PCOD9000512
_publ_section_title
;
Structure prediction by ZEFSAII (Michael W. Deem and Ramdas Pophale) SiO2 
 PCOD9000512
Probable space group: P 1
;
_chemical_formula_sum "Si O2"
_cell_formula_units_Z 6
_cell_length_a 5.175650
_cell_length_b 10.521353
_cell_length_c 5.217166
_cell_angle_alpha 56.884764
_cell_angle_beta 91.244828
_cell_angle_gamma 95.613303
_cell_volume 236.642059
_symmetry_space_group_name_H-M "P 1"
_symmetry_group_IT_number 1
_symmetry_cell_setting 'triclinic'
loop_
_space_group_symop_operation_xyz
x,y,z
loop_
_atom_site_type_symbol
_atom_site_label
_atom_site_fract_x
_atom_site_fract_y
_atom_site_fract_z
Si Si1 0.413970 0.807320 0.911460
Si Si2 0.775534 0.228891 0.388597
Si Si3 0.051752 0.536071 0.966067
Si Si4 0.754411 0.788407 0.448260
Si Si5 0.093933 0.037007 0.916976
Si Si6 0.264252 0.270377 0.029280
O O1 0.225724 0.655382 0.010155
O O2 0.593414 0.839394 0.630811
O O3 0.240109 0.943222 0.816879
O O4 0.584285 0.780766 0.195319
O O5 0.498135 0.233346 0.254070
O O6 0.836416 0.106655 0.733658
O O7 0.983335 0.199894 0.203389
O O8 0.889655 0.402327 0.274167
O O9 0.856021 0.628692 0.701456
O O10 0.230579 0.448573 0.870467
O O11 0.003566 0.908035 0.264396
O O12 0.279851 0.183982 0.857801
#
# Coordination Sequence:
#
# PCOD9000512 Si02
#       6
#     1   1   1   1   1   1
#     4  12  29  49  83 119 166 212 272 335 411 483
#     4  10  27  49  79 114 161 208 272 328 408 476
#     4  10  26  50  78 118 160 214 272 336 402 490
#     4  12  29  49  83 119 166 212 272 335 411 483
#     4  12  30  46  82 120 162 212 270 340 404 488
#     4  10  27  49  79 114 161 208 272 328 408 476
#
# _framework density 25.354749999999999
#
# number of rings (size 3 to 8) (size 9 to 14) (size 15 to 20)
#    1.000    0.000    0.000    3.000   11.667    6.667 
#    0.000    0.000    0.000    0.000    0.000    0.000 
#    0.000    0.000    0.000    0.000    0.000    0.000 
#
# Total GULP energy -33602.005405 kJ/mol
# GULP energy per Si atom -5600.334234 kJ/mol
# Density = 2.529704 g / cm^3
# Si number density = 25.354750 Si / 1000 Ang^3
#
#
#
# Elastic Constant Matrix: (Units=GPa)
#
#
# Indices 1 2 3 4 5 6 
#
# 1 123.6038 85.2041 50.2291 6.0382 21.6066 -16.0727
# 2 85.2041 207.7970 51.9586 -8.6722 16.6271 4.7079
# 3 50.2291 51.9586 106.7413 -5.2601 13.6953 -12.2000
# 4 6.0382 -8.6722 -5.2601 51.6282 -2.9586 5.2098
# 5 21.6066 16.6271 13.6953 -2.9586 39.0513 3.0849
# 6 -16.0727 4.7079 -12.2000 5.2098 3.0849 45.1691
#
#
#
# Elastic Compliance Matrix: (Units=1/GPa)
#
#
# Indices 1 2 3 4 5 6 
#
# 1 0.014889 -0.005113 -0.003324 -0.003844 -0.005641 0.005762
# 2 -0.005113 0.007408 -0.001556 0.002052 0.000637 -0.003292
# 3 -0.003324 -0.001556 0.012247 0.001035 -0.001896 0.002297
# 4 -0.003844 0.002052 0.001035 0.020821 0.002775 -0.003893
# 5 -0.005641 0.000637 -0.001896 0.002775 0.029723 -0.004936
# 6 0.005762 -0.003292 0.002297 -0.003893 -0.004936 0.025939
#
#
# Mechanical properties :
#
#
# Convention : Reuss Voigt Hill
#
# Bulk Modulus (GPa) = 68.70186 90.32508 79.51347
# Shear Modulus (GPa) = 36.80064 43.88640 40.34352
#
# Velocity S-wave (km/s) = 3.81390 4.16492 3.99326
# Velocity P-wave (km/s) = 6.82272 7.67011 7.25879
#
# Compressibility (1/GPa) = 0.01455565
#
# Stress axis : x y z
#
# Youngs Moduli (GPa) = 67.16221 134.99735 81.65084
#
# Poissons Ratio (x) = 0.69030 0.27144
# Poissons Ratio (y) = 0.34343 0.12708
# Poissons Ratio (z) = 0.22328 0.21011
#
# Static dielectric constant tensor:
#      x y z
#    x 1.989430 0.031130 -0.048340 
#    y 0.031130 2.022010 0.025440 
#    z -0.048340 0.025440 1.976540 
# 
# From -- ./inp_files/250.got.cif
#   From: 2010.05.17/outbox.cif.g08.bks.cpg/sg1_1_cif.got.tgz:250.got - 2010.05.17 20:27:59.
