data_PCOD9000948
_publ_section_title
;
Structure prediction by ZEFSAII (Michael W. Deem and Ramdas Pophale) SiO2 
 PCOD9000948
Probable space group: P 1
;
_chemical_formula_sum "Si O2"
_cell_formula_units_Z 8
_cell_length_a 12.627944
_cell_length_b 5.634424
_cell_length_c 10.763007
_cell_angle_alpha 62.704805
_cell_angle_beta 147.559548
_cell_angle_gamma 103.738994
_cell_volume 346.632579
_symmetry_space_group_name_H-M "P 1"
_symmetry_group_IT_number 1
_symmetry_cell_setting 'triclinic'
loop_
_space_group_symop_operation_xyz
x,y,z
loop_
_atom_site_type_symbol
_atom_site_label
_atom_site_fract_x
_atom_site_fract_y
_atom_site_fract_z
Si Si1 0.282410 0.529710 0.856600
Si Si2 0.416599 0.790408 0.470762
Si Si3 0.043463 0.060543 0.182303
Si Si4 0.601970 0.168816 0.438004
Si Si5 0.313166 0.076563 0.680679
Si Si6 0.589265 0.353295 0.966380
Si Si7 0.717165 0.576463 0.618029
Si Si8 0.969677 0.551991 0.347280
O O1 0.452774 0.434083 0.936836
O O2 0.063145 0.532677 0.582681
O O3 0.269572 0.852115 0.784478
O O4 0.385486 0.328459 0.117948
O O5 0.510692 0.573163 0.724506
O O6 0.494424 0.636735 0.453779
O O7 0.537165 0.023164 0.529546
O O8 0.172382 0.926649 0.219085
O O9 0.227893 0.040443 0.469375
O O10 0.918919 0.865959 0.166547
O O11 0.894263 0.370907 0.929965
O O12 0.709512 0.397467 0.530833
O O13 0.729703 0.894468 0.549194
O O14 0.547430 0.075467 0.936588
O O15 0.166355 0.381781 0.499736
O O16 0.808874 0.383263 0.211098
#
# Coordination Sequence:
#
# PCOD9000948 Si02
#       8
#     1   1   1   1   1   1   1   1
#     4  10  23  44  64  93 140 182 224 278 353 409
#     4  10  22  40  68 103 133 181 223 293 345 406
#     4  11  21  42  66 106 140 172 232 293 346 412
#     4  10  25  45  66  97 142 188 227 280 350 417
#     4  10  21  36  68  99 137 171 225 288 350 404
#     4  11  21  39  68  98 131 171 232 284 345 401
#     4  10  25  41  69  98 140 182 232 277 348 413
#     4  10  22  39  65 102 133 175 229 289 343 416
#
# _framework density 23.079189
#
# number of rings (size 3 to 8) (size 9 to 14) (size 15 to 20)
#    0.750    1.000    3.750    1.500    7.000    3.000 
#    2.250    1.250    0.000    0.000    0.000    0.000 
#    0.000    0.000    0.000    0.000    0.000    0.000 
#
# Total GULP energy -44571.771233 kJ/mol
# GULP energy per Si atom -5571.471404 kJ/mol
# Density = 2.302666 g / cm^3
# Si number density = 23.079189 Si / 1000 Ang^3
#
#
#
# Elastic Constant Matrix: (Units=GPa)
#
#
# Indices 1 2 3 4 5 6 
#
# 1 21.0409 -3.3541 -13.0674 9.4708 10.4267 1.0594
# 2 -3.3541 136.1297 58.1665 15.8874 -1.1053 -5.6283
# 3 -13.0674 58.1665 95.5699 7.1677 0.3445 9.9537
# 4 9.4708 15.8874 7.1677 42.8279 5.5610 10.4615
# 5 10.4267 -1.1053 0.3445 5.5610 28.3501 0.0188
# 6 1.0594 -5.6283 9.9537 10.4615 0.0188 18.7132
#
#
#
# Elastic Compliance Matrix: (Units=1/GPa)
#
#
# Indices 1 2 3 4 5 6 
#
# 1 0.073843 -0.002735 0.013328 -0.013171 -0.024840 -0.004704
# 2 -0.002735 0.012049 -0.008487 -0.005577 0.002665 0.011408
# 3 0.013328 -0.008487 0.018839 0.001205 -0.005689 -0.013996
# 4 -0.013171 -0.005577 0.001205 0.033309 -0.001908 -0.020193
# 5 -0.024840 0.002665 -0.005689 -0.001908 0.044952 0.006255
# 6 -0.004704 0.011408 -0.013996 -0.020193 0.006255 0.075863
#
#
# Mechanical properties :
#
#
# Convention : Reuss Voigt Hill
#
# Bulk Modulus (GPa) = 9.17896 37.35894 23.26895
# Shear Modulus (GPa) = 17.18470 32.04459 24.61465
#
# Velocity S-wave (km/s) = 2.73169 3.73025 3.26932
# Velocity P-wave (km/s) = 3.73300 5.89707 4.93512
#
# Compressibility (1/GPa) = 0.10894486
#
# Stress axis : x y z
#
# Youngs Moduli (GPa) = 13.54225 82.99366 53.08126
#
# Poissons Ratio (x) = 0.22695 -0.70748
# Poissons Ratio (y) = 0.03703 0.45049
# Poissons Ratio (z) = -0.18049 0.70435
#
# Static dielectric constant tensor:
#      x y z
#    x 1.870010 -0.049270 0.021490 
#    y -0.049270 1.997660 0.040640 
#    z 0.021490 0.040640 1.872290 
# 
# From -- ./inp_files/1479.got.cif
#   From: 2010.05.17/outbox.cif.g08.bks.cpg/sg1_1_cif.got.tgz:1479.got - 2010.05.17 20:27:59.
