data_PCOD9000216
_publ_section_title
;
Structure prediction by ZEFSAII (Michael W. Deem and Ramdas Pophale) SiO2 
 PCOD9000216
Probable space group: P 1
;
_chemical_formula_sum "Si O2"
_cell_formula_units_Z 8
_cell_length_a 9.498591
_cell_length_b 13.044589
_cell_length_c 5.540549
_cell_angle_alpha 80.797613
_cell_angle_beta 97.800898
_cell_angle_gamma 149.320528
_cell_volume 345.767251
_symmetry_space_group_name_H-M "P 1"
_symmetry_group_IT_number 1
_symmetry_cell_setting 'triclinic'
loop_
_space_group_symop_operation_xyz
x,y,z
loop_
_atom_site_type_symbol
_atom_site_label
_atom_site_fract_x
_atom_site_fract_y
_atom_site_fract_z
Si Si1 0.418780 0.428430 0.842860
Si Si2 0.012293 0.085834 0.279145
Si Si3 0.083194 0.732167 0.242840
Si Si4 0.877066 0.818735 0.053143
Si Si5 0.382209 0.198027 0.714546
Si Si6 0.887901 0.176269 0.555847
Si Si7 0.890687 0.413917 0.549146
Si Si8 0.323072 0.816075 0.757654
O O1 0.647010 0.656280 0.861136
O O2 0.544327 0.400742 0.775927
O O3 0.188283 0.327123 0.650491
O O4 0.242344 0.284139 0.090107
O O5 0.183264 0.119456 0.490968
O O6 0.833769 0.065349 0.363560
O O7 0.819626 0.883642 0.171544
O O8 0.273105 0.850715 0.483525
O O9 0.908600 0.517597 0.319291
O O10 0.226915 0.809089 0.986383
O O11 0.901058 0.721607 0.219346
O O12 0.176903 0.028071 0.933359
O O13 0.597230 0.246840 0.669057
O O14 0.908754 0.312179 0.479036
O O15 0.650186 0.002838 0.760712
O O16 0.133956 0.596779 0.728187
#
# Coordination Sequence:
#
# PCOD9000216 Si02
#       8
#     1   1   1   1   1   1   1   1
#     4  10  24  43  67  98 143 183 236 288 354 425
#     4  10  25  42  66 100 139 188 235 289 350 423
#     4  10  24  45  74 106 141 181 237 297 358 407
#     4  11  23  42  73 102 141 183 235 299 351 420
#     4  10  22  43  68 102 136 178 239 292 354 415
#     4  11  25  46  68 101 142 193 232 288 352 433
#     4  10  24  41  72 103 139 185 235 295 351 424
#     4  10  25  46  68 108 143 185 231 296 354 421
#
# _framework density 23.136949999999999
#
# number of rings (size 3 to 8) (size 9 to 14) (size 15 to 20)
#    0.750    1.000    0.000    2.250    5.250    8.000 
#    0.000    0.000    0.000    0.000    0.000    0.000 
#    0.000    0.000    0.000    0.000    0.000    0.000 
#
# Total GULP energy -44678.833300 kJ/mol
# GULP energy per Si atom -5584.854163 kJ/mol
# Density = 2.308429 g / cm^3
# Si number density = 23.136950 Si / 1000 Ang^3
#
#
#
# Elastic Constant Matrix: (Units=GPa)
#
#
# Indices 1 2 3 4 5 6 
#
# 1 108.7299 42.5372 21.2659 6.0529 -18.8205 -33.7148
# 2 42.5372 120.7820 13.5252 19.9235 -14.4446 -26.3919
# 3 21.2659 13.5252 75.1528 7.1026 -13.5689 -20.3274
# 4 6.0529 19.9235 7.1026 26.7705 -5.1388 -0.6464
# 5 -18.8205 -14.4446 -13.5689 -5.1388 27.2183 5.8679
# 6 -33.7148 -26.3919 -20.3274 -0.6464 5.8679 36.7151
#
#
#
# Elastic Compliance Matrix: (Units=1/GPa)
#
#
# Indices 1 2 3 4 5 6 
#
# 1 0.014479 -0.001821 0.000530 -0.000482 0.006807 0.011184
# 2 -0.001821 0.012024 0.001601 -0.008250 0.002796 0.007265
# 3 0.000530 0.001601 0.017214 -0.004327 0.006825 0.010002
# 4 -0.000482 -0.008250 -0.004327 0.045219 0.003508 -0.008533
# 5 0.006807 0.002796 0.006825 0.003508 0.045971 0.004754
# 6 0.011184 0.007265 0.010002 -0.008533 0.004754 0.047357
#
#
# Mechanical properties :
#
#
# Convention : Reuss Voigt Hill
#
# Bulk Modulus (GPa) = 22.55407 51.03570 36.79489
# Shear Modulus (GPa) = 25.45535 33.29655 29.37595
#
# Velocity S-wave (km/s) = 3.32053 3.79767 3.56709
# Velocity P-wave (km/s) = 4.94676 6.42929 5.73612
#
# Compressibility (1/GPa) = 0.04433789
#
# Stress axis : x y z
#
# Youngs Moduli (GPa) = 69.06630 83.16544 58.09057
#
# Poissons Ratio (x) = 0.15146 -0.03081
# Poissons Ratio (y) = 0.12578 -0.09300
# Poissons Ratio (z) = -0.03663 -0.13315
#
# Static dielectric constant tensor:
#      x y z
#    x 1.858310 0.014890 0.017350 
#    y 0.014890 1.880900 0.041820 
#    z 0.017350 0.041820 1.918530 
# 
# From -- ./inp_files/1692.got.cif
#   From: 2010.05.17/outbox.cif.g08.bks.cpg/sg1_1_cif.got.tgz:1692.got - 2010.05.17 20:27:59.
