data_PCOD9000267
_publ_section_title
;
Structure prediction by ZEFSAII (Michael W. Deem and Ramdas Pophale) SiO2 
 PCOD9000267
Probable space group: P 1
;
_chemical_formula_sum "Si O2"
_cell_formula_units_Z 8
_cell_length_a 8.269048
_cell_length_b 11.501840
_cell_length_c 7.647877
_cell_angle_alpha 144.115747
_cell_angle_beta 56.232031
_cell_angle_gamma 135.366074
_cell_volume 299.167499
_symmetry_space_group_name_H-M "P 1"
_symmetry_group_IT_number 1
_symmetry_cell_setting 'triclinic'
loop_
_space_group_symop_operation_xyz
x,y,z
loop_
_atom_site_type_symbol
_atom_site_label
_atom_site_fract_x
_atom_site_fract_y
_atom_site_fract_z
Si Si1 0.360260 0.352240 0.215190
Si Si2 0.985678 0.615088 0.923700
Si Si3 0.656372 0.893834 0.657915
Si Si4 0.927878 0.881726 0.790611
Si Si5 0.198463 0.677079 0.245062
Si Si6 0.423699 0.133154 0.238059
Si Si7 0.622226 0.730046 0.124934
Si Si8 0.582800 0.212291 0.613278
O O1 0.439088 0.622714 0.480682
O O2 0.340297 0.565879 0.094070
O O3 0.394888 0.298381 0.326098
O O4 0.513131 0.287382 0.924524
O O5 0.773533 0.642648 0.025964
O O6 0.053263 0.587227 0.045765
O O7 0.199821 0.867485 0.043919
O O8 0.859557 0.350604 0.601150
O O9 0.050293 0.731743 0.532480
O O10 0.848230 0.884760 0.644598
O O11 0.619698 0.087512 0.000658
O O12 0.111286 0.147001 0.054765
O O13 0.726065 0.783379 0.933332
O O14 0.687451 0.933229 0.480272
O O15 0.483097 0.240568 0.524970
O O16 0.429391 0.929354 0.366960
#
# Coordination Sequence:
#
# PCOD9000267 Si02
#       8
#     1   1   1   1   1   1   1   1
#     4  11  24  43  71 102 143 184 239 297 348 432
#     4  11  22  48  71 101 147 183 233 301 354 420
#     4  12  26  46  71 106 143 188 240 295 358 428
#     4  11  23  44  71 102 144 186 235 296 357 425
#     4  10  23  45  71 104 145 182 240 300 351 429
#     4  11  26  45  71 104 143 188 239 294 360 424
#     4  12  24  44  74 101 138 192 232 291 365 416
#     4  10  22  45  70 100 141 185 234 292 353 424
#
# _framework density 26.740872
#
# number of rings (size 3 to 8) (size 9 to 14) (size 15 to 20)
#    0.000    1.000    3.750    3.000    1.750    2.000 
#    0.000    5.000    0.000    0.000    0.000    0.000 
#    0.000    0.000    0.000    0.000    0.000    0.000 
#
# Total GULP energy -44668.485536 kJ/mol
# GULP energy per Si atom -5583.560692 kJ/mol
# Density = 2.668001 g / cm^3
# Si number density = 26.740872 Si / 1000 Ang^3
#
#
#
# Elastic Constant Matrix: (Units=GPa)
#
#
# Indices 1 2 3 4 5 6 
#
# 1 146.7137 16.0239 65.0242 -28.0455 4.0783 -11.2818
# 2 16.0239 74.0999 39.3638 -12.5234 18.2291 -5.0420
# 3 65.0242 39.3638 104.6832 -5.4222 13.5030 -11.1758
# 4 -28.0455 -12.5234 -5.4222 42.7894 -0.0771 13.4757
# 5 4.0783 18.2291 13.5030 -0.0771 61.6131 -10.1789
# 6 -11.2818 -5.0420 -11.1758 13.4757 -10.1789 37.1698
#
#
#
# Elastic Compliance Matrix: (Units=1/GPa)
#
#
# Indices 1 2 3 4 5 6 
#
# 1 0.011385 0.002998 -0.007927 0.007766 -0.000120 -0.001370
# 2 0.002998 0.019606 -0.008570 0.007557 -0.004609 -0.003009
# 3 -0.007927 -0.008570 0.017818 -0.006769 -0.000159 0.004199
# 4 0.007766 0.007557 -0.006769 0.033478 -0.003150 -0.011653
# 5 -0.000120 -0.004609 -0.000159 -0.003150 0.018543 0.005510
# 6 -0.001370 -0.003009 0.004199 -0.011653 0.005510 0.033076
#
#
# Mechanical properties :
#
#
# Convention : Reuss Voigt Hill
#
# Bulk Modulus (GPa) = 45.85214 62.92452 54.38833
# Shear Modulus (GPa) = 29.73120 41.98677 35.85898
#
# Velocity S-wave (km/s) = 3.33802 3.96679 3.66591
# Velocity P-wave (km/s) = 5.66044 6.67554 6.18884
#
# Compressibility (1/GPa) = 0.02180923
#
# Stress axis : x y z
#
# Youngs Moduli (GPa) = 87.83836 51.00571 56.12436
#
# Poissons Ratio (x) = -0.15292 0.44492
# Poissons Ratio (y) = -0.26335 0.48098
# Poissons Ratio (z) = 0.69634 0.43712
#
# Static dielectric constant tensor:
#      x y z
#    x 2.351280 -0.101030 -0.144910 
#    y -0.101030 2.349110 0.227610 
#    z -0.144910 0.227610 2.292230 
# 
# From -- ./inp_files/3245.got.cif
#   From: 2010.05.17/outbox.cif.g08.bks.cpg/sg1_2_cif.got.tgz:3245.got - 2010.05.17 20:27:59.
