data_PCOD9000405
_publ_section_title
;
Structure prediction by ZEFSAII (Michael W. Deem and Ramdas Pophale) SiO2 
 PCOD9000405
Probable space group: P 1
;
_chemical_formula_sum "Si O2"
_cell_formula_units_Z 8
_cell_length_a 13.929420
_cell_length_b 5.222178
_cell_length_c 5.307690
_cell_angle_alpha 121.049951
_cell_angle_beta 88.048408
_cell_angle_gamma 103.134139
_cell_volume 320.515123
_symmetry_space_group_name_H-M "P 1"
_symmetry_group_IT_number 1
_symmetry_cell_setting 'triclinic'
loop_
_space_group_symop_operation_xyz
x,y,z
loop_
_atom_site_type_symbol
_atom_site_label
_atom_site_fract_x
_atom_site_fract_y
_atom_site_fract_z
Si Si1 0.032530 0.309650 0.518390
Si Si2 0.616496 0.145896 0.767193
Si Si3 0.436580 0.394733 0.759712
Si Si4 0.368588 0.900442 0.164953
Si Si5 0.259886 0.940350 0.694184
Si Si6 0.088599 0.224141 0.971537
Si Si7 0.688091 0.533205 0.455887
Si Si8 0.919031 0.788117 0.589480
O O1 0.084571 0.442050 0.845837
O O2 0.954305 0.491904 0.524622
O O3 0.114813 0.332327 0.305939
O O4 0.976322 0.960505 0.426304
O O5 0.506730 0.199795 0.775606
O O6 0.668211 0.321986 0.600483
O O7 0.625402 0.794341 0.596418
O O8 0.664858 0.325263 0.103202
O O9 0.328094 0.289605 0.839286
O O10 0.417920 0.263370 0.411179
O O11 0.460248 0.747740 0.017581
O O12 0.299870 0.807856 0.373208
O O13 0.300227 0.837247 0.894913
O O14 0.150566 0.987679 0.751157
O O15 0.972099 0.047139 0.917109
O O16 0.802904 0.717956 0.539179
#
# Coordination Sequence:
#
# PCOD9000405 Si02
#       8
#     1   1   1   1   1   1   1   1
#     4  10  24  39  71  94 141 177 229 279 351 403
#     4  12  28  46  76 106 143 186 239 292 358 420
#     4  10  26  43  71  98 142 177 234 285 349 413
#     4  10  24  39  71  94 141 177 229 279 351 403
#     4  10  24  42  68 100 137 182 227 283 345 412
#     4  10  24  42  68 100 137 182 227 283 345 412
#     4  12  28  46  76 106 143 186 239 292 358 420
#     4  10  26  43  71  98 142 177 234 285 349 413
#
# _framework density 24.959821000000002
#
# number of rings (size 3 to 8) (size 9 to 14) (size 15 to 20)
#    1.500    0.000    0.000    3.000   10.500    2.000 
#    0.000    0.000    0.000    0.000    0.000    0.000 
#    0.000    0.000    0.000    0.000    0.000    0.000 
#
# Total GULP energy -44627.046342 kJ/mol
# GULP energy per Si atom -5578.380793 kJ/mol
# Density = 2.490301 g / cm^3
# Si number density = 24.959821 Si / 1000 Ang^3
#
#
#
# Elastic Constant Matrix: (Units=GPa)
#
#
# Indices 1 2 3 4 5 6 
#
# 1 82.2793 23.1952 11.2810 -10.3753 -0.2211 -7.4861
# 2 23.1952 111.6237 55.8063 -27.3166 -5.9017 -16.4820
# 3 11.2810 55.8063 134.4635 -37.4822 -17.9206 -17.6211
# 4 -10.3753 -27.3166 -37.4822 39.2545 -6.7221 -0.5063
# 5 -0.2211 -5.9017 -17.9206 -6.7221 24.7285 6.8713
# 6 -7.4861 -16.4820 -17.6211 -0.5063 6.8713 43.2076
#
#
#
# Elastic Compliance Matrix: (Units=1/GPa)
#
#
# Indices 1 2 3 4 5 6 
#
# 1 0.013181 -0.002187 0.000950 0.002996 0.000606 0.001776
# 2 -0.002187 0.012858 -0.002830 0.006008 0.001753 0.003164
# 3 0.000950 -0.002830 0.014812 0.014724 0.013180 0.003202
# 4 0.002996 0.006008 0.014724 0.048655 0.023801 0.005601
# 5 0.000606 0.001753 0.013180 0.023801 0.057646 -0.002740
# 6 0.001776 0.003164 0.003202 0.005601 -0.002740 0.026466
#
#
# Mechanical properties :
#
#
# Convention : Reuss Voigt Hill
#
# Bulk Modulus (GPa) = 30.56350 56.54797 43.55573
# Shear Modulus (GPa) = 25.95294 37.31037 31.63165
#
# Velocity S-wave (km/s) = 3.22807 3.87048 3.56378
# Velocity P-wave (km/s) = 5.11523 6.53291 5.86705
#
# Compressibility (1/GPa) = 0.03271877
#
# Stress axis : x y z
#
# Youngs Moduli (GPa) = 75.86749 77.77205 67.51156
#
# Poissons Ratio (x) = 0.17006 -0.06416
# Poissons Ratio (y) = 0.16589 0.19106
# Poissons Ratio (z) = -0.07210 0.22009
#
# Static dielectric constant tensor:
#      x y z
#    x 1.959130 0.027830 0.027370 
#    y 0.027830 2.109410 0.036920 
#    z 0.027370 0.036920 2.022490 
# 
# From -- ./inp_files/2647.got.cif
#   From: 2010.05.17/outbox.cif.g08.bks.cpg/sg1_2_cif.got.tgz:2647.got - 2010.05.17 20:27:59.
