data_PCOD9000659
_publ_section_title
;
Structure prediction by ZEFSAII (Michael W. Deem and Ramdas Pophale) SiO2 
 PCOD9000659
Probable space group: P 1
;
_chemical_formula_sum "Si O2"
_cell_formula_units_Z 8
_cell_length_a 14.226949
_cell_length_b 5.514828
_cell_length_c 10.632836
_cell_angle_alpha 121.242615
_cell_angle_beta 152.319497
_cell_angle_gamma 67.192607
_cell_volume 325.899553
_symmetry_space_group_name_H-M "P 1"
_symmetry_group_IT_number 1
_symmetry_cell_setting 'triclinic'
loop_
_space_group_symop_operation_xyz
x,y,z
loop_
_atom_site_type_symbol
_atom_site_label
_atom_site_fract_x
_atom_site_fract_y
_atom_site_fract_z
Si Si1 0.197040 0.644170 0.881990
Si Si2 0.626495 0.565004 0.792804
Si Si3 0.619615 0.033624 0.481044
Si Si4 0.828233 0.146637 0.515649
Si Si5 0.398778 0.104753 0.604836
Si Si6 0.045379 0.771773 0.491751
Si Si7 0.979895 0.751397 0.905889
Si Si8 0.405659 0.183131 0.916595
O O1 0.333230 0.397682 0.989441
O O2 0.082640 0.560281 0.591821
O O3 0.045865 0.708979 0.827537
O O4 0.377589 0.919447 0.166722
O O5 0.525532 0.841774 0.710003
O O6 0.643384 0.363448 0.639332
O O7 0.499742 0.345199 0.687637
O O8 0.852936 0.666274 0.146622
O O9 0.772876 0.883278 0.707984
O O10 0.692044 0.957622 0.408198
O O11 0.942629 0.414287 0.805813
O O12 0.979414 0.018007 0.570111
O O13 0.647686 0.213543 0.230918
O O14 0.381892 0.243921 0.758310
O O15 0.172337 0.951269 0.251019
O O16 0.252397 0.885425 0.689653
#
# Coordination Sequence:
#
# PCOD9000659 Si02
#       8
#     1   1   1   1   1   1   1   1
#     4  12  26  48  76 110 148 198 262 314 378 454
#     4  12  32  52  78 112 160 204 258 314 380 460
#     4  12  28  48  77 109 153 202 255 317 384 450
#     4  12  26  48  76 110 148 198 262 314 378 454
#     4  12  32  52  78 112 160 204 258 314 380 460
#     4  12  28  48  77 109 153 202 255 317 384 450
#     4  12  28  48  77 109 153 202 255 317 384 450
#     4  12  28  48  77 109 153 202 255 317 384 450
#
# _framework density 24.547438
#
# number of rings (size 3 to 8) (size 9 to 14) (size 15 to 20)
#    0.000    0.000    7.500    0.000   17.500    0.000 
#    0.000    0.000    0.000    0.000    0.000    0.000 
#    0.000    0.000    0.000    0.000    0.000    0.000 
#
# Total GULP energy -44700.041661 kJ/mol
# GULP energy per Si atom -5587.505208 kJ/mol
# Density = 2.449157 g / cm^3
# Si number density = 24.547438 Si / 1000 Ang^3
#
#
#
# Elastic Constant Matrix: (Units=GPa)
#
#
# Indices 1 2 3 4 5 6 
#
# 1 115.9720 11.3777 -1.6472 0.7073 10.4671 -3.9920
# 2 11.3777 85.7095 6.8234 -7.3787 5.0532 -20.3695
# 3 -1.6472 6.8234 105.1489 -4.1001 2.7146 6.5244
# 4 0.7073 -7.3787 -4.1001 32.9940 -1.2003 0.6680
# 5 10.4671 5.0532 2.7146 -1.2003 36.6839 1.5601
# 6 -3.9920 -20.3695 6.5244 0.6680 1.5601 38.6006
#
#
#
# Elastic Compliance Matrix: (Units=1/GPa)
#
#
# Indices 1 2 3 4 5 6 
#
# 1 0.008966 -0.000991 0.000220 -0.000486 -0.002474 0.000476
# 2 -0.000991 0.014034 -0.001239 0.002788 -0.001788 0.007537
# 3 0.000220 -0.001239 0.009786 0.000963 -0.000488 -0.002282
# 4 -0.000486 0.002788 0.000963 0.031072 0.000671 0.000694
# 5 -0.002474 -0.001788 -0.000488 0.000671 0.028367 -0.002275
# 6 0.000476 0.007537 -0.002282 0.000694 -0.002275 0.030398
#
#
# Mechanical properties :
#
#
# Convention : Reuss Voigt Hill
#
# Bulk Modulus (GPa) = 34.76234 37.77090 36.26662
# Shear Modulus (GPa) = 36.70224 41.00745 38.85485
#
# Velocity S-wave (km/s) = 3.87092 4.09166 3.98282
# Velocity P-wave (km/s) = 5.84557 6.14349 5.99638
#
# Compressibility (1/GPa) = 0.02876677
#
# Stress axis : x y z
#
# Youngs Moduli (GPa) = 111.53579 71.25508 102.18776
#
# Poissons Ratio (x) = 0.07059 -0.02250
# Poissons Ratio (y) = 0.11049 0.12661
# Poissons Ratio (z) = -0.02455 0.08828
#
# Static dielectric constant tensor:
#      x y z
#    x 1.962480 0.109970 0.011550 
#    y 0.109970 2.123610 0.018610 
#    z 0.011550 0.018610 1.914860 
# 
# From -- ./inp_files/6687.got.cif
#   From: 2010.05.17/outbox.cif.g08.bks.cpg/sg1_4_cif.got.tgz:6687.got - 2010.05.17 20:27:59.
