data_PCOD9000128
_publ_section_title
;
Structure prediction by ZEFSAII (Michael W. Deem and Ramdas Pophale) SiO2 
 PCOD9000128
Probable space group: P 1
;
_chemical_formula_sum "Si O2"
_cell_formula_units_Z 8
_cell_length_a 5.227800
_cell_length_b 10.415538
_cell_length_c 15.005663
_cell_angle_alpha 23.775001
_cell_angle_beta 83.357913
_cell_angle_gamma 76.869062
_cell_volume 311.806105
_symmetry_space_group_name_H-M "P 1"
_symmetry_group_IT_number 1
_symmetry_cell_setting 'triclinic'
loop_
_space_group_symop_operation_xyz
x,y,z
loop_
_atom_site_type_symbol
_atom_site_label
_atom_site_fract_x
_atom_site_fract_y
_atom_site_fract_z
Si Si1 0.178800 0.467220 0.609670
Si Si2 0.902353 0.131191 0.590639
Si Si3 0.903937 0.509231 0.770975
Si Si4 0.899241 0.813978 0.157678
Si Si5 0.053052 0.224855 0.131574
Si Si6 0.377698 0.337369 0.374271
Si Si7 0.784951 0.054812 0.824283
Si Si8 0.528224 0.198711 0.267698
O O1 0.471356 0.255028 0.700411
O O2 0.147742 0.490689 0.703583
O O3 0.960030 0.285687 0.706962
O O4 0.108269 0.842516 0.338127
O O5 0.663378 0.146688 0.524474
O O6 0.907672 0.907708 0.818212
O O7 0.179675 0.110147 0.543799
O O8 0.824609 0.507812 0.398527
O O9 0.669706 0.833906 0.539487
O O10 0.808934 0.179027 0.968926
O O11 0.009515 0.470542 0.892634
O O12 0.803383 0.806674 0.063548
O O13 0.224940 0.671171 0.223810
O O14 0.773110 0.296432 0.150986
O O15 0.304822 0.206785 0.197262
O O16 0.400178 0.417846 0.219330
#
# Coordination Sequence:
#
# PCOD9000128 Si02
#       8
#     1   1   1   1   1   1   1   1
#     4  10  22  36  60  96 134 155 200 269 311 373
#     4  10  22  39  62  91 122 168 202 255 311 377
#     4  10  23  43  67 100 125 168 213 262 323 375
#     4   9  23  39  64  95 123 159 203 269 306 371
#     4  11  23  41  68  92 127 176 208 260 317 384
#     4  10  23  45  62  86 134 163 204 264 310 362
#     4  11  21  36  61  94 128 159 202 255 321 371
#     4  11  25  47  62  94 133 168 216 262 311 379
#
# _framework density 25.656970000000001
#
# number of rings (size 3 to 8) (size 9 to 14) (size 15 to 20)
#    0.750    1.000    0.000    4.500    5.250    4.000 
#    4.500    0.000    0.000    0.000    0.000    0.000 
#    0.000    0.000    0.000    0.000    0.000    0.000 
#
# Total GULP energy -44761.433394 kJ/mol
# GULP energy per Si atom -5595.179174 kJ/mol
# Density = 2.559857 g / cm^3
# Si number density = 25.656970 Si / 1000 Ang^3
#
#
#
# Elastic Constant Matrix: (Units=GPa)
#
#
# Indices 1 2 3 4 5 6 
#
# 1 129.7625 39.5505 37.0832 18.5069 4.7782 3.0442
# 2 39.5505 74.2207 46.8358 23.4582 6.0651 0.4904
# 3 37.0832 46.8358 144.4020 22.5491 9.8026 10.0665
# 4 18.5069 23.4582 22.5491 68.5254 9.1675 -4.6088
# 5 4.7782 6.0651 9.8026 9.1675 21.6060 8.9715
# 6 3.0442 0.4904 10.0665 -4.6088 8.9715 37.1452
#
#
#
# Elastic Compliance Matrix: (Units=1/GPa)
#
#
# Indices 1 2 3 4 5 6 
#
# 1 0.009361 -0.004161 -0.000884 -0.000870 0.000121 -0.000610
# 2 -0.004161 0.020071 -0.004826 -0.003890 -0.001387 0.001236
# 3 -0.000884 -0.004826 0.009123 -0.001094 -0.001220 -0.002177
# 4 -0.000870 -0.003890 -0.001094 0.017845 -0.007652 0.004481
# 5 0.000121 -0.001387 -0.001220 -0.007652 0.056351 -0.014220
# 6 -0.000610 0.001236 -0.002177 0.004481 -0.014220 0.031536
#
#
# Mechanical properties :
#
#
# Convention : Reuss Voigt Hill
#
# Bulk Modulus (GPa) = 53.15637 66.14713 59.65175
# Shear Modulus (GPa) = 29.35992 40.44969 34.90481
#
# Velocity S-wave (km/s) = 3.38646 3.97490 3.69242
# Velocity P-wave (km/s) = 6.00449 6.84863 6.44040
#
# Compressibility (1/GPa) = 0.01881242
#
# Stress axis : x y z
#
# Youngs Moduli (GPa) = 106.82222 49.82370 109.61465
#
# Poissons Ratio (x) = 0.20734 0.09692
# Poissons Ratio (y) = 0.44453 0.52896
# Poissons Ratio (z) = 0.09445 0.24043
#
# Static dielectric constant tensor:
#      x y z
#    x 1.935480 0.029770 0.017900 
#    y 0.029770 2.103160 -0.011080 
#    z 0.017900 -0.011080 2.029830 
# 
# From -- ./inp_files/7014.got.cif
#   From: 2010.05.17/outbox.cif.g08.bks.cpg/sg1_4_cif.got.tgz:7014.got - 2010.05.17 20:27:59.
