data_PCOD9000542
_publ_section_title
;
Structure prediction by ZEFSAII (Michael W. Deem and Ramdas Pophale) SiO2 
 PCOD9000542
Probable space group: P 1
;
_chemical_formula_sum "Si O2"
_cell_formula_units_Z 8
_cell_length_a 5.261353
_cell_length_b 8.976376
_cell_length_c 9.868868
_cell_angle_alpha 105.034074
_cell_angle_beta 86.170089
_cell_angle_gamma 54.116490
_cell_volume 350.149001
_symmetry_space_group_name_H-M "P 1"
_symmetry_group_IT_number 1
_symmetry_cell_setting 'triclinic'
loop_
_space_group_symop_operation_xyz
x,y,z
loop_
_atom_site_type_symbol
_atom_site_label
_atom_site_fract_x
_atom_site_fract_y
_atom_site_fract_z
Si Si1 0.012770 0.651960 0.446470
Si Si2 0.377771 0.743436 0.629431
Si Si3 0.818238 0.546450 0.197666
Si Si4 0.678725 0.282950 0.248573
Si Si5 0.212566 0.850645 0.121424
Si Si6 0.251955 0.572314 0.827317
Si Si7 0.455549 0.267173 0.954471
Si Si8 0.534524 0.886728 0.878234
O O1 0.118140 0.774826 0.537954
O O2 0.702740 0.690227 0.537950
O O3 0.915872 0.669104 0.296039
O O4 0.350297 0.426915 0.380521
O O5 0.424407 0.584331 0.695373
O O6 0.289944 0.911010 0.779865
O O7 0.838911 0.392580 0.262284
O O8 0.456410 0.701416 0.191940
O O9 0.066799 0.415510 0.037337
O O10 0.603901 0.279063 0.090726
O O11 0.893725 0.057739 0.234167
O O12 0.176703 0.726273 0.985168
O O13 0.387528 0.916104 0.038560
O O14 0.472961 0.361508 0.841721
O O15 0.886218 0.668240 0.813605
O O16 0.580671 0.047427 0.883965
#
# Coordination Sequence:
#
# PCOD9000542 Si02
#       8
#     1   1   1   1   1   1   1   1
#     4  11  24  46  72  94 136 195 234 268 338 399
#     4  11  24  46  72  94 136 195 234 268 338 399
#     4  11  22  39  71 102 142 177 217 293 336 416
#     4  11  22  39  71 102 142 177 217 293 336 416
#     4  11  22  38  66 112 138 169 226 276 370 393
#     4  11  22  39  71 102 142 177 217 293 336 416
#     4  11  22  38  66 112 138 169 226 276 370 393
#     4  11  22  39  71 102 142 177 217 293 336 416
#
# _framework density 22.847415999999999
#
# number of rings (size 3 to 8) (size 9 to 14) (size 15 to 20)
#    0.000    1.000    7.500    0.000    0.000    0.000 
#    0.000    0.000   11.000    0.000    0.000    0.000 
#    0.000    0.000    0.000    0.000    0.000    0.000 
#
# Total GULP energy -44653.790237 kJ/mol
# GULP energy per Si atom -5581.723780 kJ/mol
# Density = 2.279541 g / cm^3
# Si number density = 22.847416 Si / 1000 Ang^3
#
#
#
# Elastic Constant Matrix: (Units=GPa)
#
#
# Indices 1 2 3 4 5 6 
#
# 1 99.4999 -8.0152 18.2076 -0.0072 14.0090 0.6671
# 2 -8.0152 59.5529 -6.5967 0.5711 17.9503 -0.3220
# 3 18.2076 -6.5967 64.8272 0.0791 27.5564 0.1801
# 4 -0.0072 0.5711 0.0791 12.8405 0.5355 0.9245
# 5 14.0090 17.9503 27.5564 0.5355 53.9571 -0.2558
# 6 0.6671 -0.3220 0.1801 0.9245 -0.2558 27.4763
#
#
#
# Elastic Compliance Matrix: (Units=1/GPa)
#
#
# Indices 1 2 3 4 5 6 
#
# 1 0.010907 0.002070 -0.001731 0.000053 -0.002638 -0.000256
# 2 0.002070 0.020937 0.006050 -0.000531 -0.010587 0.000075
# 3 -0.001731 0.006050 0.021960 0.000139 -0.012781 -0.000155
# 4 0.000053 -0.000531 0.000139 0.078121 -0.000696 -0.002643
# 5 -0.002638 -0.010587 -0.012781 -0.000696 0.029276 0.000320
# 6 -0.000256 0.000075 -0.000155 -0.002643 0.000320 0.036495
#
#
# Mechanical properties :
#
#
# Convention : Reuss Voigt Hill
#
# Bulk Modulus (GPa) = 15.01922 25.67460 20.34691
# Shear Modulus (GPa) = 24.14152 33.54041 28.84097
#
# Velocity S-wave (km/s) = 3.25413 3.83563 3.55678
# Velocity P-wave (km/s) = 4.55051 5.55679 5.07863
#
# Compressibility (1/GPa) = 0.06658137
#
# Stress axis : x y z
#
# Youngs Moduli (GPa) = 91.68579 47.76241 45.53662
#
# Poissons Ratio (x) = -0.09884 0.07881
# Poissons Ratio (y) = -0.18974 -0.27549
# Poissons Ratio (z) = 0.15868 -0.28895
#
# Static dielectric constant tensor:
#      x y z
#    x 1.949230 0.001670 0.008570 
#    y 0.001670 1.830110 -0.000460 
#    z 0.008570 -0.000460 1.913700 
# 
# From -- ./inp_files/2080.got.cif
#   From: 2010.05.17/outbox.cif.g08.bks.cpg/sg1_2_cif.got.tgz:2080.got - 2010.05.17 20:27:59.
