data_PCOD9000703
_publ_section_title
;
Structure prediction by ZEFSAII (Michael W. Deem and Ramdas Pophale) SiO2 
 PCOD9000703
Probable space group: P 1
;
_chemical_formula_sum "Si O2"
_cell_formula_units_Z 8
_cell_length_a 7.672303
_cell_length_b 9.909249
_cell_length_c 10.947717
_cell_angle_alpha 29.923365
_cell_angle_beta 126.859240
_cell_angle_gamma 127.308920
_cell_volume 324.357884
_symmetry_space_group_name_H-M "P 1"
_symmetry_group_IT_number 1
_symmetry_cell_setting 'triclinic'
loop_
_space_group_symop_operation_xyz
x,y,z
loop_
_atom_site_type_symbol
_atom_site_label
_atom_site_fract_x
_atom_site_fract_y
_atom_site_fract_z
Si Si1 0.277940 0.386100 0.513370
Si Si2 0.537126 0.674876 0.819866
Si Si3 0.908547 0.133491 0.194315
Si Si4 0.855579 0.147996 0.908997
Si Si5 0.032163 0.884351 0.975221
Si Si6 0.454515 0.122420 0.579627
Si Si7 0.401564 0.136940 0.294306
Si Si8 0.772976 0.595550 0.668748
O O1 0.292332 0.260084 0.482073
O O2 0.520659 0.498493 0.590448
O O3 0.155043 0.135232 0.744287
O O4 0.155061 0.635233 0.244291
O O5 0.461428 0.348028 0.044863
O O6 0.789443 0.771939 0.898161
O O7 0.389579 0.803173 0.759099
O O8 0.472161 0.842518 0.544610
O O9 0.155057 0.135219 0.244309
O O10 0.848681 0.922398 0.443759
O O11 0.771472 0.003927 0.115735
O O12 0.837941 0.427909 0.944006
O O13 0.655039 0.135198 0.744321
O O14 0.920516 0.467246 0.729518
O O15 0.017767 0.010351 0.006531
O O16 0.538642 0.266490 0.372899
#
# Coordination Sequence:
#
# PCOD9000703 Si02
#       8
#     1   1   1   1   1   1   1   1
#     4  11  22  33  54  82 113 141 173 218 276 316
#     4   9  20  35  56  78 111 135 184 221 260 312
#     4  10  19  34  60  82 103 139 184 225 263 307
#     4   8  20  34  56  80 107 135 184 224 262 307
#     4  11  22  33  54  82 113 141 173 218 276 316
#     4   8  20  34  56  80 107 135 184 224 262 307
#     4  10  19  34  60  82 103 139 184 225 263 307
#     4   9  20  35  56  78 111 135 184 221 260 312
#
# _framework density 24.664114999999999
#
# number of rings (size 3 to 8) (size 9 to 14) (size 15 to 20)
#    1.500    1.000    0.000    2.250    3.500    2.000 
#    0.000    0.000    0.000    9.000    0.000    0.000 
#    0.000    0.000    0.000    0.000    0.000    0.000 
#
# Total GULP energy -44559.402391 kJ/mol
# GULP energy per Si atom -5569.925299 kJ/mol
# Density = 2.460798 g / cm^3
# Si number density = 24.664115 Si / 1000 Ang^3
#
#
#
# Elastic Constant Matrix: (Units=GPa)
#
#
# Indices 1 2 3 4 5 6 
#
# 1 83.9647 11.6479 48.8506 -5.9717 5.8148 -3.2241
# 2 11.6479 72.1800 27.7266 0.7753 10.5440 21.4837
# 3 48.8506 27.7266 234.9571 -18.2492 23.0546 34.0449
# 4 -5.9717 0.7753 -18.2492 26.0724 13.4463 -0.0945
# 5 5.8148 10.5440 23.0546 13.4463 33.7415 6.5923
# 6 -3.2241 21.4837 34.0449 -0.0945 6.5923 49.9300
#
#
#
# Elastic Compliance Matrix: (Units=1/GPa)
#
#
# Indices 1 2 3 4 5 6 
#
# 1 0.014375 -0.002213 -0.003058 0.001879 -0.001253 0.004134
# 2 -0.002213 0.016825 -0.000094 0.000878 -0.003831 -0.006810
# 3 -0.003058 -0.000094 0.006589 0.006983 -0.005977 -0.003847
# 4 0.001879 0.000878 0.006983 0.058271 -0.028364 -0.001163
# 5 -0.001253 -0.003831 -0.005977 -0.028364 0.046546 -0.000556
# 6 0.004134 -0.006810 -0.003847 -0.001163 -0.000556 0.025920
#
#
# Mechanical properties :
#
#
# Convention : Reuss Voigt Hill
#
# Bulk Modulus (GPa) = 36.95619 63.06134 50.00877
# Shear Modulus (GPa) = 26.55679 42.14056 34.34867
#
# Velocity S-wave (km/s) = 3.28493 4.13798 3.73588
# Velocity P-wave (km/s) = 5.42254 6.96089 6.23931
#
# Compressibility (1/GPa) = 0.02705907
#
# Stress axis : x y z
#
# Youngs Moduli (GPa) = 69.56564 59.43585 151.76047
#
# Poissons Ratio (x) = 0.13152 0.46404
# Poissons Ratio (y) = 0.15394 0.01434
# Poissons Ratio (z) = 0.21271 0.00562
#
# Static dielectric constant tensor:
#      x y z
#    x 2.022040 0.023500 0.016260 
#    y 0.023500 2.022450 0.009400 
#    z 0.016260 0.009400 2.185000 
# 
# From -- ./inp_files/5626.got.cif
#   From: 2010.05.17/outbox.cif.g08.bks.cpg/sg1_3_cif.got.tgz:5626.got - 2010.05.17 20:27:59.
