data_PCOD9000799
_publ_section_title
;
Structure prediction by ZEFSAII (Michael W. Deem and Ramdas Pophale) SiO2 
 PCOD9000799
Probable space group: P 1
;
_chemical_formula_sum "Si O2"
_cell_formula_units_Z 8
_cell_length_a 7.647436
_cell_length_b 5.813590
_cell_length_c 9.792382
_cell_angle_alpha 66.350967
_cell_angle_beta 48.366210
_cell_angle_gamma 57.951546
_cell_volume 274.988561
_symmetry_space_group_name_H-M "P 1"
_symmetry_group_IT_number 1
_symmetry_cell_setting 'triclinic'
loop_
_space_group_symop_operation_xyz
x,y,z
loop_
_atom_site_type_symbol
_atom_site_label
_atom_site_fract_x
_atom_site_fract_y
_atom_site_fract_z
Si Si1 0.982270 0.937610 0.806250
Si Si2 0.851506 0.182613 0.395103
Si Si3 0.046649 0.422168 0.417050
Si Si4 0.502593 0.413272 0.307982
Si Si5 0.839291 0.482433 0.887164
Si Si6 0.254672 0.582647 0.992427
Si Si7 0.551476 0.888321 0.515630
Si Si8 0.261352 0.095393 0.962732
O O1 0.874006 0.768346 0.802853
O O2 0.021921 0.771878 0.970886
O O3 0.839851 0.265405 0.821272
O O4 0.274528 0.895416 0.641707
O O5 0.029154 0.141828 0.445553
O O6 0.647107 0.452156 0.357072
O O7 0.650834 0.040586 0.547034
O O8 0.063307 0.077884 0.187961
O O9 0.201442 0.488063 0.440844
O O10 0.751140 0.593661 0.514000
O O11 0.157019 0.503397 0.202584
O O12 0.585030 0.082664 0.332002
O O13 0.609350 0.519096 0.101339
O O14 0.090692 0.278987 0.886173
O O15 0.381584 0.294571 0.918357
O O16 0.390812 0.788693 0.911126
#
# Coordination Sequence:
#
# PCOD9000799 Si02
#       8
#     1   1   1   1   1   1   1   1
#     4  10  20  34  63  83 130 163 200 256 324 372
#     4   8  18  35  54  87 114 154 198 250 305 357
#     4  11  19  38  65  86 123 159 212 262 306 370
#     4   9  21  40  62  94 116 161 219 257 306 374
#     4   9  18  37  55  89 114 164 208 250 303 376
#     4   9  16  30  52  81 106 152 193 240 291 352
#     4  10  21  38  58  92 122 164 201 256 319 375
#     4   8  13  28  51  74 107 137 193 239 280 340
#
# _framework density 29.092119
#
# number of rings (size 3 to 8) (size 9 to 14) (size 15 to 20)
#    0.750    2.000    1.250    1.500    1.750    0.000 
#    4.500    1.250    2.750    0.000    0.000    0.000 
#    0.000    0.000    0.000    0.000    0.000    0.000 
#
# Total GULP energy -44541.118586 kJ/mol
# GULP energy per Si atom -5567.639823 kJ/mol
# Density = 2.902590 g / cm^3
# Si number density = 29.092119 Si / 1000 Ang^3
#
#
#
# Elastic Constant Matrix: (Units=GPa)
#
#
# Indices 1 2 3 4 5 6 
#
# 1 185.9200 66.3514 52.2182 7.9959 -38.7939 35.2115
# 2 66.3514 163.6942 41.5214 -23.8170 -9.6028 42.6909
# 3 52.2182 41.5214 103.5714 -29.4347 -25.8366 23.9112
# 4 7.9959 -23.8170 -29.4347 46.9017 8.9538 -2.7214
# 5 -38.7939 -9.6028 -25.8366 8.9538 44.7542 -17.6326
# 6 35.2115 42.6909 23.9112 -2.7214 -17.6326 49.1759
#
#
#
# Elastic Compliance Matrix: (Units=1/GPa)
#
#
# Indices 1 2 3 4 5 6 
#
# 1 0.009306 -0.003506 -0.003620 -0.006902 0.006663 0.000147
# 2 -0.003506 0.010193 -0.000016 0.006304 -0.005215 -0.007852
# 3 -0.003620 -0.000016 0.015737 0.009786 0.002575 -0.003582
# 4 -0.006902 0.006304 0.009786 0.033016 -0.008093 -0.006364
# 5 0.006663 -0.005215 0.002575 -0.008093 0.034168 0.010308
# 6 0.000147 -0.007852 -0.003582 -0.006364 0.010308 0.032132
#
#
# Mechanical properties :
#
#
# Convention : Reuss Voigt Hill
#
# Bulk Modulus (GPa) = 47.72366 85.92973 66.82669
# Shear Modulus (GPa) = 32.08890 47.70599 39.89745
#
# Velocity S-wave (km/s) = 3.32476 4.05387 3.70728
# Velocity P-wave (km/s) = 5.58379 7.17726 6.43007
#
# Compressibility (1/GPa) = 0.02095397
#
# Stress axis : x y z
#
# Youngs Moduli (GPa) = 107.46225 98.10730 63.54608
#
# Poissons Ratio (x) = 0.34392 0.23001
# Poissons Ratio (y) = 0.37671 0.00099
# Poissons Ratio (z) = 0.38896 0.00152
#
# Static dielectric constant tensor:
#      x y z
#    x 2.351790 0.081720 0.070570 
#    y 0.081720 2.517010 0.059640 
#    z 0.070570 0.059640 2.237150 
# 
# From -- ./inp_files/7079.got.cif
#   From: 2010.05.17/outbox.cif.g08.bks.cpg/sg1_4_cif.got.tgz:7079.got - 2010.05.17 20:27:59.
