data_PCOD9000374
_publ_section_title
;
Structure prediction by ZEFSAII (Michael W. Deem and Ramdas Pophale) SiO2 
 PCOD9000374
Probable space group: P 1
;
_chemical_formula_sum "Si O2"
_cell_formula_units_Z 8
_cell_length_a 11.857414
_cell_length_b 14.287945
_cell_length_c 6.666316
_cell_angle_alpha 135.983971
_cell_angle_beta 133.968767
_cell_angle_gamma 25.917419
_cell_volume 338.791797
_symmetry_space_group_name_H-M "P 1"
_symmetry_group_IT_number 1
_symmetry_cell_setting 'triclinic'
loop_
_space_group_symop_operation_xyz
x,y,z
loop_
_atom_site_type_symbol
_atom_site_label
_atom_site_fract_x
_atom_site_fract_y
_atom_site_fract_z
Si Si1 0.827420 0.481080 0.662510
Si Si2 0.473790 0.183759 0.447734
Si Si3 0.277912 0.074175 0.286779
Si Si4 0.650721 0.119546 0.165784
Si Si5 0.450254 0.721510 0.212223
Si Si6 0.093946 0.554749 0.253453
Si Si7 0.923599 0.936264 0.834648
Si Si8 0.850468 0.274802 0.764260
O O1 0.564730 0.654714 0.473652
O O2 0.844446 0.367285 0.695612
O O3 0.062271 0.280835 0.492363
O O4 0.881413 0.594676 0.981197
O O5 0.429495 0.091194 0.395872
O O6 0.612119 0.050565 0.202449
O O7 0.203207 0.426438 0.405833
O O8 0.655861 0.169784 0.758702
O O9 0.463715 0.848713 0.295559
O O10 0.116368 0.110420 0.966279
O O11 0.347785 0.368682 0.134191
O O12 0.790365 0.161737 0.467741
O O13 0.820165 0.945634 0.928696
O O14 0.620654 0.492867 0.955413
O O15 0.147596 0.887482 0.082197
O O16 0.024304 0.754769 0.526035
#
# Coordination Sequence:
#
# PCOD9000374 Si02
#       8
#     1   1   1   1   1   1   1   1
#     4  11  25  45  70 107 140 190 229 295 360 407
#     4  10  24  45  68 104 139 182 238 291 345 416
#     4  11  24  44  73 101 145 184 239 289 349 426
#     4  10  23  46  72 102 137 187 234 290 353 410
#     4  11  26  43  71 108 141 187 236 287 356 426
#     4  10  24  49  68 102 142 180 237 291 342 419
#     4  12  24  46  71 103 141 190 230 290 357 420
#     4  11  22  46  71 101 147 184 233 297 348 418
#
# _framework density 23.613323999999999
#
# number of rings (size 3 to 8) (size 9 to 14) (size 15 to 20)
#    0.750    0.500    2.500    2.250    1.750    6.000 
#    4.500    0.000    0.000    0.000    0.000    0.000 
#    0.000    0.000    0.000    0.000    0.000    0.000 
#
# Total GULP energy -44714.097401 kJ/mol
# GULP energy per Si atom -5589.262175 kJ/mol
# Density = 2.355958 g / cm^3
# Si number density = 23.613324 Si / 1000 Ang^3
#
#
#
# Elastic Constant Matrix: (Units=GPa)
#
#
# Indices 1 2 3 4 5 6 
#
# 1 95.4539 9.9803 16.2311 -7.5164 -7.9504 -4.6866
# 2 9.9803 54.6441 44.4873 -10.1730 0.7797 8.6020
# 3 16.2311 44.4873 98.9987 -33.0297 14.6498 -8.4534
# 4 -7.5164 -10.1730 -33.0297 40.7875 -1.8973 -3.6447
# 5 -7.9504 0.7797 14.6498 -1.8973 38.3158 -0.7616
# 6 -4.6866 8.6020 -8.4534 -3.6447 -0.7616 37.0400
#
#
#
# Elastic Compliance Matrix: (Units=1/GPa)
#
#
# Indices 1 2 3 4 5 6 
#
# 1 0.011211 -0.001052 -0.001340 0.000990 0.002939 0.001515
# 2 -0.001052 0.036451 -0.021589 -0.009562 0.006536 -0.014332
# 3 -0.001340 -0.021589 0.028658 0.018288 -0.009632 0.012986
# 4 0.000990 -0.009562 0.018288 0.037821 -0.004518 0.010148
# 5 0.002939 0.006536 -0.009632 -0.004518 0.029972 -0.003173
# 6 0.001515 -0.014332 0.012986 0.010148 -0.003173 0.034415
#
#
# Mechanical properties :
#
#
# Convention : Reuss Voigt Hill
#
# Bulk Modulus (GPa) = 35.26401 43.38824 39.32613
# Shear Modulus (GPa) = 21.19136 35.12187 28.15662
#
# Velocity S-wave (km/s) = 2.99897 3.86083 3.45687
# Velocity P-wave (km/s) = 5.19212 6.18782 5.71171
#
# Compressibility (1/GPa) = 0.02835752
#
# Stress axis : x y z
#
# Youngs Moduli (GPa) = 89.19487 27.43384 34.89399
#
# Poissons Ratio (x) = 0.02887 0.04677
# Poissons Ratio (y) = 0.09387 0.75332
# Poissons Ratio (z) = 0.11956 0.59226
#
# Static dielectric constant tensor:
#      x y z
#    x 1.875820 -0.018050 -0.015620 
#    y -0.018050 1.974340 -0.035900 
#    z -0.015620 -0.035900 1.901080 
# 
# From -- ./inp_files/2518.got.cif
#   From: 2010.05.17/outbox.cif.g08.bks.cpg/sg1_2_cif.got.tgz:2518.got - 2010.05.17 20:27:59.
