data_PCOD9000340
_publ_section_title
;
Structure prediction by ZEFSAII (Michael W. Deem and Ramdas Pophale) SiO2 
 PCOD9000340
Probable space group: P 1
;
_chemical_formula_sum "Si O2"
_cell_formula_units_Z 8
_cell_length_a 19.360238
_cell_length_b 7.411942
_cell_length_c 14.432935
_cell_angle_alpha 30.421820
_cell_angle_beta 16.843934
_cell_angle_gamma 35.441378
_cell_volume 303.086091
_symmetry_space_group_name_H-M "P 1"
_symmetry_group_IT_number 1
_symmetry_cell_setting 'triclinic'
loop_
_space_group_symop_operation_xyz
x,y,z
loop_
_atom_site_type_symbol
_atom_site_label
_atom_site_fract_x
_atom_site_fract_y
_atom_site_fract_z
Si Si1 0.397200 0.510010 0.756500
Si Si2 0.184195 0.733655 0.758276
Si Si3 0.862539 0.230852 0.256823
Si Si4 0.257666 0.773632 0.001642
Si Si5 0.510944 0.538147 0.281019
Si Si6 0.268147 0.540798 0.302030
Si Si7 0.072877 0.802610 0.612912
Si Si8 0.696544 0.260768 0.991637
O O1 0.190845 0.533801 0.935948
O O2 0.581411 0.218250 0.629276
O O3 0.542759 0.894693 0.382181
O O4 0.328516 0.492774 0.958940
O O5 0.453464 0.731783 0.366654
O O6 0.134409 0.142404 0.650262
O O7 0.986967 0.516251 0.044744
O O8 0.931302 0.415039 0.989140
O O9 0.991432 0.878634 0.270755
O O10 0.288660 0.668899 0.113533
O O11 0.415114 0.139700 0.612770
O O12 0.715993 0.487361 0.963522
O O13 0.319382 0.737165 0.377191
O O14 0.520164 0.455044 0.063602
O O15 0.126340 0.797885 0.437533
O O16 0.923102 0.102994 0.719982
#
# Coordination Sequence:
#
# PCOD9000340 Si02
#       8
#     1   1   1   1   1   1   1   1
#     4   9  17  33  54  74 101 137 174 210 252 304
#     4   9  17  33  55  79 102 134 176 214 253 304
#     4   9  18  35  55  73  98 138 179 211 248 303
#     4   9  18  32  49  74 108 138 166 211 263 307
#     4   8  16  32  51  71  97 133 175 211 248 301
#     4  10  18  29  50  79 108 133 163 214 267 301
#     4   8  15  30  50  71  98 135 172 204 247 305
#     4   8  15  30  50  71  96 134 173 205 246 303
#
# _framework density 26.395140999999999
#
# number of rings (size 3 to 8) (size 9 to 14) (size 15 to 20)
#    0.000    3.500    0.000    2.250    0.000    1.000 
#    0.000   32.500    0.000   12.000    0.000    7.000 
#    0.000    0.000    0.000    0.000    0.000    0.000 
#
# Total GULP energy -44701.101994 kJ/mol
# GULP energy per Si atom -5587.637749 kJ/mol
# Density = 2.633506 g / cm^3
# Si number density = 26.395141 Si / 1000 Ang^3
#
#
#
# Elastic Constant Matrix: (Units=GPa)
#
#
# Indices 1 2 3 4 5 6 
#
# 1 141.6264 51.9960 56.7218 12.7204 54.6741 -6.8159
# 2 51.9960 168.8702 47.2957 12.9845 34.5288 -12.5909
# 3 56.7218 47.2957 99.2417 7.7724 39.6145 -12.0574
# 4 12.7204 12.9845 7.7724 45.9542 8.1598 6.5022
# 5 54.6741 34.5288 39.6145 8.1598 56.5371 -2.5382
# 6 -6.8159 -12.5909 -12.0574 6.5022 -2.5382 52.2200
#
#
#
# Elastic Compliance Matrix: (Units=1/GPa)
#
#
# Indices 1 2 3 4 5 6 
#
# 1 0.012119 -0.001015 -0.002705 -0.001064 -0.009033 0.000406
# 2 -0.001015 0.007357 -0.001895 -0.001313 -0.001937 0.001273
# 3 -0.002705 -0.001895 0.015675 -0.000477 -0.007028 0.002527
# 4 -0.001064 -0.001313 -0.000477 0.023245 -0.001348 -0.003526
# 5 -0.009033 -0.001937 -0.007028 -0.001348 0.032657 -0.001514
# 6 0.000406 0.001273 0.002527 -0.003526 -0.001514 0.020459
#
#
# Mechanical properties :
#
#
# Convention : Reuss Voigt Hill
#
# Bulk Modulus (GPa) = 41.80354 80.19613 60.99983
# Shear Modulus (GPa) = 38.25112 47.85724 43.05418
#
# Velocity S-wave (km/s) = 3.81093 4.26268 4.04312
# Velocity P-wave (km/s) = 5.93601 7.39433 6.70494
#
# Compressibility (1/GPa) = 0.02392142
#
# Stress axis : x y z
#
# Youngs Moduli (GPa) = 82.51643 135.92503 63.79476
#
# Poissons Ratio (x) = 0.13796 0.17253
# Poissons Ratio (y) = 0.08375 0.12091
# Poissons Ratio (z) = 0.22317 0.25762
#
# Static dielectric constant tensor:
#      x y z
#    x 2.059950 0.064000 -0.007910 
#    y 0.064000 2.058790 -0.038250 
#    z -0.007910 -0.038250 2.208770 
# 
# From -- ./inp_files/4642.got.cif
#   From: 2010.05.17/outbox.cif.g08.bks.cpg/sg1_3_cif.got.tgz:4642.got - 2010.05.17 20:27:59.
