data_PCOD9000829
_publ_section_title
;
Structure prediction by ZEFSAII (Michael W. Deem and Ramdas Pophale) SiO2 
 PCOD9000829
Probable space group: P 1
;
_chemical_formula_sum "Si O2"
_cell_formula_units_Z 6
_cell_length_a 4.670497
_cell_length_b 7.807663
_cell_length_c 8.864118
_cell_angle_alpha 37.340080
_cell_angle_beta 103.202883
_cell_angle_gamma 110.201416
_cell_volume 183.390876
_symmetry_space_group_name_H-M "P 1"
_symmetry_group_IT_number 1
_symmetry_cell_setting 'triclinic'
loop_
_space_group_symop_operation_xyz
x,y,z
loop_
_atom_site_type_symbol
_atom_site_label
_atom_site_fract_x
_atom_site_fract_y
_atom_site_fract_z
Si Si1 0.051000 0.204480 0.179280
Si Si2 0.008150 0.112860 0.536606
Si Si3 0.297351 0.711772 0.709297
Si Si4 0.680329 0.950827 0.043271
Si Si5 0.758766 0.607356 0.008888
Si Si6 0.245214 0.336944 0.692906
O O1 0.165110 0.006488 0.470139
O O2 0.890583 0.310895 0.247031
O O3 0.963940 0.476610 0.881685
O O4 0.867932 0.948628 0.222598
O O5 0.219591 0.372437 0.485423
O O6 0.649984 0.896737 0.684906
O O7 0.092778 0.844818 0.836457
O O8 0.361533 0.626122 0.605204
O O9 0.406850 0.421828 0.030560
O O10 0.675572 0.679831 0.120186
O O11 0.401323 0.089345 0.945279
O O12 0.889319 0.207357 0.781613
#
# Coordination Sequence:
#
# PCOD9000829 Si02
#       6
#     1   1   1   1   1   1
#     4  10  22  38  59  88 117 153 200 245 290 351
#     4  10  22  38  59  88 117 153 200 245 290 351
#     4  10  20  38  61  81 119 158 192 240 301 348
#     4  10  20  38  61  85 119 159 194 240 300 353
#     4  10  20  38  61  81 119 158 192 240 301 348
#     4  10  20  38  61  85 119 159 194 240 300 353
#
# _framework density 32.717002999999998
#
# number of rings (size 3 to 8) (size 9 to 14) (size 15 to 20)
#    0.000    2.000    3.333    0.000    0.000    2.667 
#    0.000    1.667    0.000    0.000    0.000    0.000 
#    0.000    0.000    0.000    0.000    0.000    0.000 
#
# Total GULP energy -33530.602722 kJ/mol
# GULP energy per Si atom -5588.433787 kJ/mol
# Density = 3.264254 g / cm^3
# Si number density = 32.717003 Si / 1000 Ang^3
#
#
#
# Elastic Constant Matrix: (Units=GPa)
#
#
# Indices 1 2 3 4 5 6 
#
# 1 207.1997 89.9537 75.0017 3.4560 62.0770 -17.8432
# 2 89.9537 323.8901 76.6343 78.2094 39.7819 -15.4505
# 3 75.0017 76.6343 295.5395 12.9566 -23.5730 -12.7076
# 4 3.4560 78.2094 12.9566 67.1862 1.8790 10.3313
# 5 62.0770 39.7819 -23.5730 1.8790 79.1831 -11.4787
# 6 -17.8432 -15.4505 -12.7076 10.3313 -11.4787 55.5986
#
#
#
# Elastic Compliance Matrix: (Units=1/GPa)
#
#
# Indices 1 2 3 4 5 6 
#
# 1 0.008150 -0.001354 -0.002305 0.001772 -0.006430 0.000056
# 2 -0.001354 0.005472 -0.000843 -0.006366 -0.001533 0.001760
# 3 -0.002305 -0.000843 0.004517 -0.000001 0.003695 0.000821
# 4 0.001772 -0.006366 -0.000001 0.023016 0.000483 -0.005378
# 5 -0.006430 -0.001533 0.003695 0.000483 0.019871 0.002368
# 6 0.000056 0.001760 0.000821 -0.005378 0.002368 0.020169
#
#
# Mechanical properties :
#
#
# Convention : Reuss Voigt Hill
#
# Bulk Modulus (GPa) = 109.46280 145.53431 127.49856
# Shear Modulus (GPa) = 53.62199 79.39622 66.50911
#
# Velocity S-wave (km/s) = 4.05280 4.93156 4.51362
# Velocity P-wave (km/s) = 7.44516 8.77533 8.13747
#
# Compressibility (1/GPa) = 0.00913552
#
# Stress axis : x y z
#
# Youngs Moduli (GPa) = 122.70003 182.74347 221.36826
#
# Poissons Ratio (x) = 0.24736 0.51035
# Poissons Ratio (y) = 0.16608 0.18660
# Poissons Ratio (z) = 0.28288 0.15404
#
# Static dielectric constant tensor:
#      x y z
#    x 2.624870 -0.525550 0.036780 
#    y -0.525550 3.185780 0.061870 
#    z 0.036780 0.061870 2.371970 
# 
# From -- ./inp_files/842.got.cif
#   From: 2010.05.17/outbox.cif.g08.bks.cpg/sg1_1_cif.got.tgz:842.got - 2010.05.17 20:27:59.
