data_PCOD9000194
_publ_section_title
;
Structure prediction by ZEFSAII (Michael W. Deem and Ramdas Pophale) SiO2 
 PCOD9000194
Probable space group: P 1
;
_chemical_formula_sum "Si O2"
_cell_formula_units_Z 8
_cell_length_a 8.029496
_cell_length_b 9.265989
_cell_length_c 9.104237
_cell_angle_alpha 44.251956
_cell_angle_beta 68.254775
_cell_angle_gamma 94.651830
_cell_volume 371.052177
_symmetry_space_group_name_H-M "P 1"
_symmetry_group_IT_number 1
_symmetry_cell_setting 'triclinic'
loop_
_space_group_symop_operation_xyz
x,y,z
loop_
_atom_site_type_symbol
_atom_site_label
_atom_site_fract_x
_atom_site_fract_y
_atom_site_fract_z
Si Si1 0.235660 0.336470 0.950200
Si Si2 0.139570 0.826020 0.412551
Si Si3 0.522250 0.767816 0.328674
Si Si4 0.377305 0.632090 0.972748
Si Si5 0.108312 0.284329 0.539680
Si Si6 0.749748 0.787985 0.946848
Si Si7 0.190924 0.906273 0.685116
Si Si8 0.905171 0.299701 0.889374
O O1 0.428407 0.545364 0.637201
O O2 0.030675 0.345018 0.966510
O O3 0.298329 0.415510 0.039271
O O4 0.163068 0.056744 0.154714
O O5 0.327549 0.791551 0.325867
O O6 0.188160 0.899313 0.515065
O O7 0.923284 0.557240 0.664414
O O8 0.620134 0.714939 0.193886
O O9 0.691032 0.036181 0.144924
O O10 0.219023 0.534951 0.234216
O O11 0.601844 0.705311 0.913620
O O12 0.344125 0.827129 0.757430
O O13 0.051803 0.285050 0.725723
O O14 0.246416 0.163342 0.550547
O O15 0.884686 0.084924 0.684643
O O16 0.937781 0.734673 0.930593
#
# Coordination Sequence:
#
# PCOD9000194 Si02
#       8
#     1   1   1   1   1   1   1   1
#     4  11  23  38  66 100 129 168 221 270 331 382
#     4  11  22  43  63  98 133 170 216 272 330 387
#     4  10  22  44  63  98 131 170 218 270 329 393
#     4  12  20  42  69  91 135 172 214 279 325 381
#     4   9  22  43  62  96 131 167 222 272 315 396
#     4   9  23  44  63  95 133 165 221 271 322 390
#     4  10  22  44  64  96 130 169 224 265 323 387
#     4  10  22  42  66  90 138 167 212 273 325 390
#
# _framework density 21.560307999999999
#
# number of rings (size 3 to 8) (size 9 to 14) (size 15 to 20)
#    0.750    1.000    3.750    1.500    0.000    6.000 
#    6.750    0.000    0.000    0.000    0.000    0.000 
#    0.000    0.000    0.000    0.000    0.000    0.000 
#
# Total GULP energy -44569.830817 kJ/mol
# GULP energy per Si atom -5571.228852 kJ/mol
# Density = 2.151124 g / cm^3
# Si number density = 21.560308 Si / 1000 Ang^3
#
#
#
# Elastic Constant Matrix: (Units=GPa)
#
#
# Indices 1 2 3 4 5 6 
#
# 1 52.6382 17.0060 19.9110 -10.7786 -1.6897 12.6285
# 2 17.0060 78.6977 21.5328 -17.2053 0.0264 11.3651
# 3 19.9110 21.5328 105.9185 -23.7601 10.1853 -2.6009
# 4 -10.7786 -17.2053 -23.7601 40.3426 -6.7543 -7.0752
# 5 -1.6897 0.0264 10.1853 -6.7543 26.4173 -7.3739
# 6 12.6285 11.3651 -2.6009 -7.0752 -7.3739 40.7116
#
#
#
# Elastic Compliance Matrix: (Units=1/GPa)
#
#
# Indices 1 2 3 4 5 6 
#
# 1 0.023174 -0.002677 -0.003647 0.002150 0.001772 -0.005980
# 2 -0.002677 0.015090 -0.001725 0.004403 0.000888 -0.002566
# 3 -0.003647 -0.001725 0.012021 0.005416 -0.002690 0.002835
# 4 0.002150 0.004403 0.005416 0.032745 0.007976 0.005585
# 5 0.001772 0.000888 -0.002690 0.007976 0.043351 0.008269
# 6 -0.005980 -0.002566 0.002835 0.005585 0.008269 0.029784
#
#
# Mechanical properties :
#
#
# Convention : Reuss Voigt Hill
#
# Bulk Modulus (GPa) = 29.25139 39.35046 34.30092
# Shear Modulus (GPa) = 27.22451 33.41460 30.31955
#
# Velocity S-wave (km/s) = 3.55732 3.94105 3.75409
# Velocity P-wave (km/s) = 5.51991 6.24501 5.89362
#
# Compressibility (1/GPa) = 0.03418641
#
# Stress axis : x y z
#
# Youngs Moduli (GPa) = 43.15258 66.26768 83.18865
#
# Poissons Ratio (x) = 0.17739 0.30339
# Poissons Ratio (y) = 0.11551 0.14353
# Poissons Ratio (z) = 0.15738 0.11433
#
# Static dielectric constant tensor:
#      x y z
#    x 1.778390 0.004420 -0.024890 
#    y 0.004420 1.838560 -0.034750 
#    z -0.024890 -0.034750 1.818820 
# 
# From -- ./inp_files/4041.got.cif
#   From: 2010.05.17/outbox.cif.g08.bks.cpg/sg1_3_cif.got.tgz:4041.got - 2010.05.17 20:27:59.
