data_PCOD9000980
_publ_section_title
;
Structure prediction by ZEFSAII (Michael W. Deem and Ramdas Pophale) SiO2 
 PCOD9000980
Probable space group: P 1
;
_chemical_formula_sum "Si O2"
_cell_formula_units_Z 8
_cell_length_a 7.776967
_cell_length_b 11.742191
_cell_length_c 9.265784
_cell_angle_alpha 128.329498
_cell_angle_beta 110.750925
_cell_angle_gamma 34.572937
_cell_volume 352.654384
_symmetry_space_group_name_H-M "P 1"
_symmetry_group_IT_number 1
_symmetry_cell_setting 'triclinic'
loop_
_space_group_symop_operation_xyz
x,y,z
loop_
_atom_site_type_symbol
_atom_site_label
_atom_site_fract_x
_atom_site_fract_y
_atom_site_fract_z
Si Si1 0.876230 0.755070 0.716910
Si Si2 0.868341 0.931480 0.602016
Si Si3 0.748648 0.305782 0.993810
Si Si4 0.369072 0.951873 0.518473
Si Si5 0.680708 0.643935 0.091989
Si Si6 0.103382 0.405883 0.766285
Si Si7 0.957446 0.012531 0.093496
Si Si8 0.080213 0.836659 0.284154
O O1 0.046500 0.698459 0.573673
O O2 0.558373 0.880424 0.660205
O O3 0.024875 0.547873 0.712769
O O4 0.857053 0.924469 0.922206
O O5 0.914830 0.877728 0.405289
O O6 0.926393 0.059985 0.769917
O O7 0.488064 0.166655 0.712335
O O8 0.845249 0.396087 0.022222
O O9 0.354160 0.560677 0.071202
O O10 0.815523 0.232168 0.124677
O O11 0.272562 0.848100 0.416660
O O12 0.069036 0.252468 0.629479
O O13 0.589088 0.808017 0.326001
O O14 0.342221 0.801413 0.049251
O O15 0.889958 0.582045 0.980810
O O16 0.864696 0.047200 0.259863
#
# Coordination Sequence:
#
# PCOD9000980 Si02
#       8
#     1   1   1   1   1   1   1   1
#     4  10  22  37  56  87 118 150 193 233 284 347
#     4  10  22  38  58  87 118 153 195 235 286 346
#     4   9  19  39  62  84 115 150 189 244 292 331
#     4   9  22  39  58  88 115 148 196 240 288 344
#     4  10  22  39  61  86 116 153 194 237 286 345
#     4  11  22  38  58  83 123 157 185 239 292 332
#     4   9  20  39  63  88 112 151 198 235 286 351
#     4  10  21  39  62  87 115 150 196 239 284 346
#
# _framework density 22.685099999999998
#
# number of rings (size 3 to 8) (size 9 to 14) (size 15 to 20)
#    0.000    2.500    0.000    2.250    0.000   13.000 
#    0.000    3.750    0.000    0.000    0.000    0.000 
#    0.000    0.000    0.000    0.000    0.000    0.000 
#
# Total GULP energy -44538.518960 kJ/mol
# GULP energy per Si atom -5567.314870 kJ/mol
# Density = 2.263347 g / cm^3
# Si number density = 22.685100 Si / 1000 Ang^3
#
#
#
# Elastic Constant Matrix: (Units=GPa)
#
#
# Indices 1 2 3 4 5 6 
#
# 1 72.6272 24.7695 25.8804 -12.6809 -0.9271 6.1090
# 2 24.7695 132.8242 24.0856 -24.6009 -3.6487 33.4953
# 3 25.8804 24.0856 82.2888 -16.1816 -14.6497 -0.5722
# 4 -12.6809 -24.6009 -16.1816 35.4515 7.4493 -0.1931
# 5 -0.9271 -3.6487 -14.6497 7.4493 51.2597 -10.5289
# 6 6.1090 33.4953 -0.5722 -0.1931 -10.5289 34.1075
#
#
#
# Elastic Compliance Matrix: (Units=1/GPa)
#
#
# Indices 1 2 3 4 5 6 
#
# 1 0.016578 -0.000944 -0.004638 0.003602 -0.002186 -0.002775
# 2 -0.000944 0.013143 -0.002716 0.008293 -0.003928 -0.013949
# 3 -0.004638 -0.002716 0.015852 0.002680 0.004954 0.005308
# 4 0.003602 0.008293 0.002680 0.037721 -0.006206 -0.010446
# 5 -0.002186 -0.003928 0.004954 -0.006206 0.023906 0.011677
# 6 -0.002775 -0.013949 0.005308 -0.010446 0.011677 0.047149
#
#
# Mechanical properties :
#
#
# Convention : Reuss Voigt Hill
#
# Bulk Modulus (GPa) = 34.50866 48.57903 41.54384
# Shear Modulus (GPa) = 27.68525 38.36405 33.02465
#
# Velocity S-wave (km/s) = 3.49723 4.11683 3.81962
# Velocity P-wave (km/s) = 5.61717 6.63767 6.14863
#
# Compressibility (1/GPa) = 0.02897824
#
# Stress axis : x y z
#
# Youngs Moduli (GPa) = 60.32119 76.08732 63.08493
#
# Poissons Ratio (x) = 0.07179 0.29258
# Poissons Ratio (y) = 0.05692 0.17132
# Poissons Ratio (z) = 0.27976 0.20663
#
# Static dielectric constant tensor:
#      x y z
#    x 1.943210 0.026680 0.017570 
#    y 0.026680 1.882170 0.018960 
#    z 0.017570 0.018960 1.910820 
# 
# From -- ./inp_files/4728.got.cif
#   From: 2010.05.17/outbox.cif.g08.bks.cpg/sg1_3_cif.got.tgz:4728.got - 2010.05.17 20:27:59.
