data_PCOD9000851
_publ_section_title
;
Structure prediction by ZEFSAII (Michael W. Deem and Ramdas Pophale) SiO2 
 PCOD9000851
Probable space group: P 1
;
_chemical_formula_sum "Si O2"
_cell_formula_units_Z 8
_cell_length_a 8.300214
_cell_length_b 11.195938
_cell_length_c 5.319251
_cell_angle_alpha 85.057079
_cell_angle_beta 99.927539
_cell_angle_gamma 137.048542
_cell_volume 331.179225
_symmetry_space_group_name_H-M "P 1"
_symmetry_group_IT_number 1
_symmetry_cell_setting 'triclinic'
loop_
_space_group_symop_operation_xyz
x,y,z
loop_
_atom_site_type_symbol
_atom_site_label
_atom_site_fract_x
_atom_site_fract_y
_atom_site_fract_z
Si Si1 0.151980 0.277300 0.018670
Si Si2 0.639177 0.095564 0.794992
Si Si3 0.235430 0.185445 0.557945
Si Si4 0.422610 0.005929 0.239161
Si Si5 0.760190 0.544657 0.573785
Si Si6 0.278464 0.719221 0.589336
Si Si7 0.550798 0.645037 0.847730
Si Si8 0.943307 0.851180 0.245811
O O1 0.132346 0.221956 0.309341
O O2 0.354876 0.485895 0.011789
O O3 0.907080 0.196490 0.856934
O O4 0.222215 0.216731 0.837813
O O5 0.590474 0.133682 0.034604
O O6 0.561979 0.113567 0.512485
O O7 0.447963 0.884066 0.796462
O O8 0.516686 0.338293 0.533212
O O9 0.063739 0.980823 0.493458
O O10 0.336549 0.824271 0.328613
O O11 0.176757 0.942014 0.137715
O O12 0.004728 0.595223 0.632888
O O13 0.815477 0.661159 0.332878
O O14 0.688268 0.608799 0.750986
O O15 0.395605 0.650265 0.628315
O O16 0.753395 0.820326 0.034270
#
# Coordination Sequence:
#
# PCOD9000851 Si02
#       8
#     1   1   1   1   1   1   1   1
#     4  11  24  42  62 102 138 170 229 282 326 405
#     4  10  20  39  63  91 137 170 215 282 328 386
#     4  11  25  42  68  96 136 179 220 281 337 395
#     4   9  22  39  65  96 133 172 224 279 325 403
#     4  10  23  46  63 101 141 168 230 285 324 406
#     4   9  22  40  67  98 131 176 223 276 334 399
#     4  11  23  41  71  97 135 184 222 275 346 394
#     4  11  23  41  73  95 133 187 223 270 352 396
#
# _framework density 24.156105
#
# number of rings (size 3 to 8) (size 9 to 14) (size 15 to 20)
#    0.750    1.000    1.250    2.250    3.500    2.000 
#    0.000    1.250    0.000    0.000    0.000    0.000 
#    0.000    0.000    0.000    0.000    0.000    0.000 
#
# Total GULP energy -44576.434168 kJ/mol
# GULP energy per Si atom -5572.054271 kJ/mol
# Density = 2.410113 g / cm^3
# Si number density = 24.156105 Si / 1000 Ang^3
#
#
#
# Elastic Constant Matrix: (Units=GPa)
#
#
# Indices 1 2 3 4 5 6 
#
# 1 -496.8476 -522.4863 -242.9595 366.6172 -296.1719 411.6233
# 2 -522.4863 -457.1767 -242.1283 354.4145 -286.3793 386.5281
# 3 -242.9595 -242.1283 -47.6832 163.5078 -139.1415 191.4305
# 4 366.6172 354.4145 163.5078 -177.2373 204.8561 -222.1854
# 5 -296.1719 -286.3793 -139.1415 204.8561 -140.5496 215.2942
# 6 411.6233 386.5281 191.4305 -222.1854 215.2942 -206.2942
#
#
#
# Elastic Compliance Matrix: (Units=1/GPa)
#
#
# Indices 1 2 3 4 5 6 
#
# 1 0.015907 -0.007270 -0.003810 0.005126 -0.010720 -0.002125
# 2 -0.007270 0.014804 -0.001523 0.001467 -0.007492 0.002420
# 3 -0.003810 -0.001523 0.014968 0.003393 -0.001540 -0.001826
# 4 0.005126 0.001467 0.003393 0.024126 -0.004865 -0.014936
# 5 -0.010720 -0.007492 -0.001540 -0.004865 0.038850 0.008928
# 6 -0.002125 0.002420 -0.001826 -0.014936 0.008928 0.019155
#
#
# Mechanical properties :
#
#
# Convention : Reuss Voigt Hill
#
# Bulk Modulus (GPa) = 48.84144 -335.20620 -143.18238
# Shear Modulus (GPa) = 31.28104 -104.42510 -36.57203
#
# Velocity S-wave (km/s) = 3.60245 -6.58203 -3.89522
# Velocity P-wave (km/s) = 6.12915 14.02969 8.92372
#
# Compressibility (1/GPa) = 0.02047442
#
# Stress axis : x y z
#
# Youngs Moduli (GPa) = 62.86474 67.54760 66.80733
#
# Poissons Ratio (x) = 0.49108 0.25451
# Poissons Ratio (y) = 0.45703 0.10175
# Poissons Ratio (z) = 0.23949 0.10288
#
# Static dielectric constant tensor:
#      x y z
#    x 3.115610 0.243390 -1.126610 
#    y 0.243390 2.026110 -0.307830 
#    z -1.126610 -0.307830 3.008660 
# 
# From -- ./inp_files/1704.got.cif
#   From: 2010.05.17/outbox.cif.g08.bks.cpg/sg1_1_cif.got.tgz:1704.got - 2010.05.17 20:27:59.
