data_PCOD9000723
_publ_section_title
;
Structure prediction by ZEFSAII (Michael W. Deem and Ramdas Pophale) SiO2 
 PCOD9000723
Probable space group: P 1
;
_chemical_formula_sum "Si O2"
_cell_formula_units_Z 8
_cell_length_a 7.182832
_cell_length_b 7.225676
_cell_length_c 9.288794
_cell_angle_alpha 65.815722
_cell_angle_beta 72.659931
_cell_angle_gamma 117.846917
_cell_volume 309.097620
_symmetry_space_group_name_H-M "P 1"
_symmetry_group_IT_number 1
_symmetry_cell_setting 'triclinic'
loop_
_space_group_symop_operation_xyz
x,y,z
loop_
_atom_site_type_symbol
_atom_site_label
_atom_site_fract_x
_atom_site_fract_y
_atom_site_fract_z
Si Si1 0.107490 0.964020 0.789410
Si Si2 0.789800 0.020476 0.551800
Si Si3 0.241306 0.941856 0.081302
Si Si4 0.994642 0.564329 0.491697
Si Si5 0.781524 0.137589 0.912210
Si Si6 0.583238 0.533084 0.946605
Si Si7 0.380566 0.342785 0.376641
Si Si8 0.577455 0.885060 0.321323
O O1 0.890466 0.690357 0.838316
O O2 0.155964 0.900834 0.951157
O O3 0.366417 0.168350 0.565057
O O4 0.966167 0.086296 0.820713
O O5 0.593893 0.755055 0.786738
O O6 0.678333 0.943956 0.441300
O O7 0.885429 0.304566 0.498135
O O8 0.074956 0.113139 0.468045
O O9 0.457781 0.910309 0.045251
O O10 0.392626 0.250136 0.996330
O O11 0.001012 0.744695 0.312256
O O12 0.298282 0.806906 0.401070
O O13 0.852096 0.386162 0.724931
O O14 0.795989 0.133818 0.083303
O O15 0.518140 0.465777 0.152610
O O16 0.483257 0.607724 0.359941
#
# Coordination Sequence:
#
# PCOD9000723 Si02
#       8
#     1   1   1   1   1   1   1   1
#     4  11  23  46  70  95 136 186 222 273 344 398
#     4  10  21  37  67 101 129 177 231 262 342 407
#     4  11  28  42  68 105 137 175 228 280 340 394
#     4  10  22  44  61  98 141 170 222 286 323 402
#     4  11  22  46  68  96 142 177 219 284 329 406
#     4  11  23  42  67 102 137 174 232 279 325 415
#     4  10  20  37  67  97 131 172 226 275 323 400
#     4  10  19  36  66  98 125 175 224 265 332 398
#
# _framework density 25.881788
#
# number of rings (size 3 to 8) (size 9 to 14) (size 15 to 20)
#    0.000    1.500    5.000    0.750    1.750    5.000 
#    0.000    2.500    0.000    0.000    0.000    0.000 
#    0.000    0.000    0.000    0.000    0.000    0.000 
#
# Total GULP energy -44560.183701 kJ/mol
# GULP energy per Si atom -5570.022963 kJ/mol
# Density = 2.582288 g / cm^3
# Si number density = 25.881788 Si / 1000 Ang^3
#
#
#
# Elastic Constant Matrix: (Units=GPa)
#
#
# Indices 1 2 3 4 5 6 
#
# 1 69.3113 20.6137 22.8774 13.5583 6.3331 18.9270
# 2 20.6137 132.9129 55.3951 19.5777 17.1816 18.5653
# 3 22.8774 55.3951 228.6979 5.4354 29.2864 13.7707
# 4 13.5583 19.5777 5.4354 55.0350 8.6990 10.8604
# 5 6.3331 17.1816 29.2864 8.6990 39.4153 13.8619
# 6 18.9270 18.5653 13.7707 10.8604 13.8619 30.9188
#
#
#
# Elastic Compliance Matrix: (Units=1/GPa)
#
#
# Indices 1 2 3 4 5 6 
#
# 1 0.018155 -0.000816 -0.001264 -0.002417 0.002554 -0.010356
# 2 -0.000816 0.009277 -0.001799 -0.002157 -0.001027 -0.003051
# 3 -0.001264 -0.001799 0.005306 0.000821 -0.003390 0.000723
# 4 -0.002417 -0.002157 0.000821 0.020579 -0.002526 -0.003686
# 5 0.002554 -0.001027 -0.003390 -0.002526 0.033211 -0.013439
# 6 -0.010356 -0.003051 0.000723 -0.003686 -0.013439 0.047513
#
#
# Mechanical properties :
#
#
# Convention : Reuss Voigt Hill
#
# Bulk Modulus (GPa) = 40.03372 69.85494 54.94433
# Shear Modulus (GPa) = 33.30534 47.20954 40.25744
#
# Velocity S-wave (km/s) = 3.59113 4.27552 3.94818
# Velocity P-wave (km/s) = 5.71808 7.17091 6.48531
#
# Compressibility (1/GPa) = 0.02497894
#
# Stress axis : x y z
#
# Youngs Moduli (GPa) = 55.08018 107.79706 188.46868
#
# Poissons Ratio (x) = 0.08799 0.23830
# Poissons Ratio (y) = 0.04496 0.33902
# Poissons Ratio (z) = 0.06964 0.19391
#
# Static dielectric constant tensor:
#      x y z
#    x 2.196980 -0.105290 -0.012220 
#    y -0.105290 2.017520 0.005340 
#    z -0.012220 0.005340 2.170230 
# 
# From -- ./inp_files/4197.got.cif
#   From: 2010.05.17/outbox.cif.g08.bks.cpg/sg1_3_cif.got.tgz:4197.got - 2010.05.17 20:27:59.
