data_PCOD9000617
_publ_section_title
;
Structure prediction by ZEFSAII (Michael W. Deem and Ramdas Pophale) SiO2 
 PCOD9000617
Probable space group: P 1
;
_chemical_formula_sum "Si O2"
_cell_formula_units_Z 6
_cell_length_a 7.315948
_cell_length_b 4.919517
_cell_length_c 10.959070
_cell_angle_alpha 81.860482
_cell_angle_beta 142.166600
_cell_angle_gamma 106.920532
_cell_volume 228.821251
_symmetry_space_group_name_H-M "P 1"
_symmetry_group_IT_number 1
_symmetry_cell_setting 'triclinic'
loop_
_space_group_symop_operation_xyz
x,y,z
loop_
_atom_site_type_symbol
_atom_site_label
_atom_site_fract_x
_atom_site_fract_y
_atom_site_fract_z
Si Si1 0.294340 0.891430 0.532150
Si Si2 0.311274 0.324767 0.089791
Si Si3 0.167112 0.959916 0.817889
Si Si4 0.690886 0.501170 0.803627
Si Si5 0.718992 0.756551 0.073626
Si Si6 0.886965 0.447791 0.545174
O O1 0.569371 0.751288 0.659091
O O2 0.080470 0.667202 0.531021
O O3 0.065654 0.889448 0.298610
O O4 0.432892 0.207293 0.641208
O O5 0.210825 0.028628 0.980207
O O6 0.011709 0.418534 0.961051
O O7 0.511674 0.975983 0.948294
O O8 0.536067 0.329359 0.321283
O O9 0.526796 0.534341 0.088704
O O10 0.026492 0.190296 0.665725
O O11 0.703725 0.608629 0.944553
O O12 0.948297 0.648501 0.682979
#
# Coordination Sequence:
#
# PCOD9000617 Si02
#       6
#     1   1   1   1   1   1
#     4  11  26  45  74 105 143 186 238 289 355 419
#     4  11  28  46  76 104 143 188 238 288 357 419
#     4  12  24  43  75 106 138 185 240 288 348 420
#     4  12  28  47  72 108 146 180 239 299 346 418
#     4  11  27  47  76 103 142 191 236 287 357 422
#     4  11  25  44  77 104 140 190 237 287 355 422
#
# _framework density 26.221342
#
# number of rings (size 3 to 8) (size 9 to 14) (size 15 to 20)
#    0.000    0.667    3.333    2.000   11.667    2.667 
#    0.000    0.000    0.000    0.000    0.000    0.000 
#    0.000    0.000    0.000    0.000    0.000    0.000 
#
# Total GULP energy -33634.884782 kJ/mol
# GULP energy per Si atom -5605.814130 kJ/mol
# Density = 2.616166 g / cm^3
# Si number density = 26.221342 Si / 1000 Ang^3
#
#
#
# Elastic Constant Matrix: (Units=GPa)
#
#
# Indices 1 2 3 4 5 6 
#
# 1 95.7541 43.1356 66.4029 0.1486 9.5690 -45.8807
# 2 43.1356 212.5501 117.9833 4.8315 -13.3795 -47.4299
# 3 66.4029 117.9833 325.6394 0.6005 -16.6385 -44.1610
# 4 0.1486 4.8315 0.6005 27.7564 3.6188 0.4998
# 5 9.5690 -13.3795 -16.6385 3.6188 27.4510 0.7219
# 6 -45.8807 -47.4299 -44.1610 0.4998 0.7219 61.7852
#
#
#
# Elastic Compliance Matrix: (Units=1/GPa)
#
#
# Indices 1 2 3 4 5 6 
#
# 1 0.019093 -0.000293 -0.002584 0.000934 -0.008809 0.012201
# 2 -0.000293 0.006752 -0.001759 -0.001519 0.002430 0.003692
# 3 -0.002584 -0.001759 0.004347 -0.000123 0.002700 -0.000193
# 4 0.000934 -0.001519 -0.000123 0.037087 -0.006008 -0.000790
# 5 -0.008809 0.002430 0.002700 -0.006008 0.043196 -0.003202
# 6 0.012201 0.003692 -0.000193 -0.000790 -0.003202 0.027986
#
#
# Mechanical properties :
#
#
# Convention : Reuss Voigt Hill
#
# Bulk Modulus (GPa) = 47.80357 120.99857 84.40107
# Shear Modulus (GPa) = 32.31921 50.49331 41.40626
#
# Velocity S-wave (km/s) = 3.51458 4.39299 3.97811
# Velocity P-wave (km/s) = 5.89407 8.48389 7.30467
#
# Compressibility (1/GPa) = 0.02091894
#
# Stress axis : x y z
#
# Youngs Moduli (GPa) = 52.37650 148.10391 230.03689
#
# Poissons Ratio (x) = 0.04345 0.59445
# Poissons Ratio (y) = 0.01537 0.40460
# Poissons Ratio (z) = 0.13535 0.26049
#
# Static dielectric constant tensor:
#      x y z
#    x 2.317290 0.132580 0.045930 
#    y 0.132580 2.060220 0.027930 
#    z 0.045930 0.027930 2.009080 
# 
# From -- ./inp_files/7075.got.cif
#   From: 2010.05.17/outbox.cif.g08.bks.cpg/sg1_4_cif.got.tgz:7075.got - 2010.05.17 20:27:59.
