data_PCOD9000393
_publ_section_title
;
Structure prediction by ZEFSAII (Michael W. Deem and Ramdas Pophale) SiO2 
 PCOD9000393
Probable space group: P 1
;
_chemical_formula_sum "Si O2"
_cell_formula_units_Z 6
_cell_length_a 5.103196
_cell_length_b 5.145028
_cell_length_c 9.134916
_cell_angle_alpha 101.324935
_cell_angle_beta 65.898186
_cell_angle_gamma 85.844073
_cell_volume 211.529036
_symmetry_space_group_name_H-M "P 1"
_symmetry_group_IT_number 1
_symmetry_cell_setting 'triclinic'
loop_
_space_group_symop_operation_xyz
x,y,z
loop_
_atom_site_type_symbol
_atom_site_label
_atom_site_fract_x
_atom_site_fract_y
_atom_site_fract_z
Si Si1 0.764100 0.844710 0.839780
Si Si2 0.269138 0.989122 0.426402
Si Si3 0.731847 0.388751 0.605001
Si Si4 0.782967 0.691497 0.147219
Si Si5 0.000053 0.244004 0.250387
Si Si6 0.286618 0.131888 0.768420
O O1 0.893774 0.600700 0.674200
O O2 0.466351 0.980405 0.845264
O O3 0.743434 0.706979 0.985071
O O4 0.964345 0.069928 0.844160
O O5 0.382086 0.027056 0.568576
O O6 0.925816 0.090575 0.546881
O O7 0.267897 0.173326 0.296835
O O8 0.458062 0.720622 0.292612
O O9 0.755635 0.418612 0.430699
O O10 0.417067 0.407011 0.752526
O O11 0.998548 0.433244 0.131807
O O12 0.903724 0.960352 0.201964
#
# Coordination Sequence:
#
# PCOD9000393 Si02
#       6
#     1   1   1   1   1   1
#     4  12  30  46  84 116 170 211 270 344 419 484
#     4  10  23  48  83 114 156 214 279 329 397 491
#     4  10  25  49  80 118 150 218 277 330 394 493
#     4  12  27  51  76 123 166 211 270 342 421 483
#     4  10  26  47  81 114 159 216 271 335 403 491
#     4  12  25  51  76 117 159 212 277 326 410 484
#
# _framework density 28.364902000000001
#
# number of rings (size 3 to 8) (size 9 to 14) (size 15 to 20)
#    1.000    0.000    3.333    1.000    9.333    2.667 
#    0.000    0.000    0.000    0.000    0.000    0.000 
#    0.000    0.000    0.000    0.000    0.000    0.000 
#
# Total GULP energy -33472.788086 kJ/mol
# GULP energy per Si atom -5578.798014 kJ/mol
# Density = 2.830034 g / cm^3
# Si number density = 28.364902 Si / 1000 Ang^3
#
#
#
# Elastic Constant Matrix: (Units=GPa)
#
#
# Indices 1 2 3 4 5 6 
#
# 1 157.7035 57.1816 35.7174 -7.4821 31.6179 -19.1361
# 2 57.1816 140.4083 46.9021 -3.7881 23.2019 -3.4252
# 3 35.7174 46.9021 125.0359 -8.7684 49.4430 -11.8639
# 4 -7.4821 -3.7881 -8.7684 41.1445 -17.6472 20.5153
# 5 31.6179 23.2019 49.4430 -17.6472 58.7805 -7.4972
# 6 -19.1361 -3.4252 -11.8639 20.5153 -7.4972 49.6008
#
#
#
# Elastic Compliance Matrix: (Units=1/GPa)
#
#
# Indices 1 2 3 4 5 6 
#
# 1 0.008387 -0.002879 0.000398 -0.002002 -0.003881 0.003374
# 2 -0.002879 0.009171 -0.002819 0.000496 0.000281 -0.001314
# 3 0.000398 -0.002819 0.013318 -0.003530 -0.010988 0.002944
# 4 -0.002002 0.000496 -0.003530 0.035963 0.012794 -0.014523
# 5 -0.003881 0.000281 -0.010988 0.012794 0.031481 -0.004640
# 6 0.003374 -0.001314 0.002944 -0.014523 -0.004640 0.027381
#
#
# Mechanical properties :
#
#
# Convention : Reuss Voigt Hill
#
# Bulk Modulus (GPa) = 49.31566 78.08334 63.69950
# Shear Modulus (GPa) = 34.95030 48.79492 41.87261
#
# Velocity S-wave (km/s) = 3.51403 4.15210 3.84632
# Velocity P-wave (km/s) = 5.82138 7.11157 6.49857
#
# Compressibility (1/GPa) = 0.02027753
#
# Stress axis : x y z
#
# Youngs Moduli (GPa) = 119.22941 109.03787 75.08556
#
# Poissons Ratio (x) = 0.31395 -0.02992
# Poissons Ratio (y) = 0.34329 0.21164
# Poissons Ratio (z) = -0.04751 0.30734
#
# Static dielectric constant tensor:
#      x y z
#    x 2.292400 0.022390 -0.107460 
#    y 0.022390 2.195580 -0.024290 
#    z -0.107460 -0.024290 2.290430 
# 
# From -- ./inp_files/2909.got.cif
#   From: 2010.05.17/outbox.cif.g08.bks.cpg/sg1_2_cif.got.tgz:2909.got - 2010.05.17 20:27:59.
