data_PCOD9000758
_publ_section_title
;
Structure prediction by ZEFSAII (Michael W. Deem and Ramdas Pophale) SiO2 
 PCOD9000758
Probable space group: P 1
;
_chemical_formula_sum "Si O2"
_cell_formula_units_Z 8
_cell_length_a 6.879623
_cell_length_b 8.985317
_cell_length_c 7.502520
_cell_angle_alpha 72.816495
_cell_angle_beta 52.745491
_cell_angle_gamma 56.463882
_cell_volume 307.161550
_symmetry_space_group_name_H-M "P 1"
_symmetry_group_IT_number 1
_symmetry_cell_setting 'triclinic'
loop_
_space_group_symop_operation_xyz
x,y,z
loop_
_atom_site_type_symbol
_atom_site_label
_atom_site_fract_x
_atom_site_fract_y
_atom_site_fract_z
Si Si1 0.655430 0.000000 0.121080
Si Si2 0.235314 0.750469 0.007440
Si Si3 0.846977 0.447296 0.138883
Si Si4 0.007191 0.609358 0.708710
Si Si5 0.585777 0.501707 0.629656
Si Si6 0.339477 0.405831 0.284016
Si Si7 0.808371 0.923487 0.433553
Si Si8 0.493325 0.183091 0.809008
O O1 0.464500 0.210060 0.203072
O O2 0.649828 0.911133 0.346805
O O3 0.565624 0.020308 0.960304
O O4 0.995660 0.891579 0.957640
O O5 0.518525 0.644394 0.774421
O O6 0.222749 0.574847 0.151467
O O7 0.114479 0.880263 0.201698
O O8 0.811214 0.610783 0.977172
O O9 0.806693 0.473938 0.363529
O O10 0.613497 0.403085 0.215880
O O11 0.159613 0.301677 0.963040
O O12 0.289579 0.580196 0.660541
O O13 0.121110 0.450594 0.551732
O O14 0.885065 0.780094 0.593077
O O15 0.628129 0.309912 0.740635
O O16 0.618047 0.108600 0.571949
#
# Coordination Sequence:
#
# PCOD9000758 Si02
#       8
#     1   1   1   1   1   1   1   1
#     4  10  20  37  71  91 123 169 208 255 319 370
#     4   9  20  37  64  94 120 167 211 251 314 372
#     4  10  22  37  65  94 123 173 209 252 324 372
#     4   9  19  38  65  86 128 170 205 260 313 371
#     4  10  19  39  64  90 126 168 208 258 314 372
#     4  10  19  42  63  89 128 165 208 260 314 370
#     4   9  20  37  62  97 121 165 210 259 310 371
#     4  11  21  41  66  93 129 165 209 261 316 376
#
# _framework density 26.044926
#
# number of rings (size 3 to 8) (size 9 to 14) (size 15 to 20)
#    0.750    1.500    1.250    3.000    0.000    0.000 
#    6.750    2.500    0.000    0.000    0.000    0.000 
#    0.000    0.000    0.000    0.000    0.000    0.000 
#
# Total GULP energy -44542.825363 kJ/mol
# GULP energy per Si atom -5567.853170 kJ/mol
# Density = 2.598565 g / cm^3
# Si number density = 26.044926 Si / 1000 Ang^3
#
#
#
# Elastic Constant Matrix: (Units=GPa)
#
#
# Indices 1 2 3 4 5 6 
#
# 1 37.0293 5.9371 25.5921 -3.6090 -11.2021 -6.7200
# 2 5.9371 134.3717 46.4524 -2.3007 -0.1783 -35.4272
# 3 25.5921 46.4524 227.1769 26.3154 5.8016 -1.5534
# 4 -3.6090 -2.3007 26.3154 67.7416 -5.9514 15.1317
# 5 -11.2021 -0.1783 5.8016 -5.9514 36.4125 -3.8408
# 6 -6.7200 -35.4272 -1.5534 15.1317 -3.8408 22.1869
#
#
#
# Elastic Compliance Matrix: (Units=1/GPa)
#
#
# Indices 1 2 3 4 5 6 
#
# 1 0.039640 0.007105 -0.006212 0.000511 0.015976 0.025334
# 2 0.007105 0.017110 -0.003688 -0.004550 0.005625 0.033291
# 3 -0.006212 -0.003688 0.006096 -0.001623 -0.003895 -0.006911
# 4 0.000511 -0.004550 -0.001623 0.019999 0.001489 -0.020605
# 5 0.015976 0.005625 -0.003895 0.001489 0.035235 0.018632
# 6 0.025334 0.033291 -0.006911 -0.020605 0.018632 0.122697
#
#
# Mechanical properties :
#
#
# Convention : Reuss Voigt Hill
#
# Bulk Modulus (GPa) = 17.46538 61.61567 39.54053
# Shear Modulus (GPa) = 18.83582 46.64129 32.73855
#
# Velocity S-wave (km/s) = 2.69216 4.23638 3.54927
# Velocity P-wave (km/s) = 4.04773 6.90203 5.65783
#
# Compressibility (1/GPa) = 0.05725611
#
# Stress axis : x y z
#
# Youngs Moduli (GPa) = 25.22687 58.44608 164.04238
#
# Poissons Ratio (x) = -0.41529 1.01910
# Poissons Ratio (y) = -0.17925 0.60499
# Poissons Ratio (z) = 0.15672 0.21555
#
# Static dielectric constant tensor:
#      x y z
#    x 2.168230 -0.002700 0.048330 
#    y -0.002700 2.073080 0.017160 
#    z 0.048330 0.017160 2.108200 
# 
# From -- ./inp_files/4690.got.cif
#   From: 2010.05.17/outbox.cif.g08.bks.cpg/sg1_3_cif.got.tgz:4690.got - 2010.05.17 20:27:59.
