data_PCOD9000479
_publ_section_title
;
Structure prediction by ZEFSAII (Michael W. Deem and Ramdas Pophale) SiO2 
 PCOD9000479
Probable space group: P 1
;
_chemical_formula_sum "Si O2"
_cell_formula_units_Z 8
_cell_length_a 11.070764
_cell_length_b 9.560603
_cell_length_c 5.424863
_cell_angle_alpha 93.121790
_cell_angle_beta 74.691358
_cell_angle_gamma 143.119480
_cell_volume 319.954465
_symmetry_space_group_name_H-M "P 1"
_symmetry_group_IT_number 1
_symmetry_cell_setting 'triclinic'
loop_
_space_group_symop_operation_xyz
x,y,z
loop_
_atom_site_type_symbol
_atom_site_label
_atom_site_fract_x
_atom_site_fract_y
_atom_site_fract_z
Si Si1 0.500000 0.444390 0.408880
Si Si2 0.991078 0.256600 0.637136
Si Si3 0.218369 0.429263 0.035424
Si Si4 0.385988 0.115810 0.052029
Si Si5 0.659018 0.772500 0.998573
Si Si6 0.779266 0.493564 0.563402
Si Si7 0.138151 0.644077 0.315092
Si Si8 0.058712 0.923186 0.816234
O O1 0.501421 0.347706 0.152991
O O2 0.555345 0.653201 0.315656
O O3 0.686388 0.547128 0.486592
O O4 0.263756 0.184800 0.603805
O O5 0.059367 0.245982 0.336822
O O6 0.049831 0.472323 0.576043
O O7 0.128483 0.336611 0.805033
O O8 0.755500 0.999220 0.840326
O O9 0.440717 0.547820 0.940283
O O10 0.242431 0.616641 0.092532
O O11 0.314941 0.927452 0.254505
O O12 0.565222 0.230061 0.770334
O O13 0.170068 0.973000 0.014221
O O14 0.862564 0.854464 0.917115
O O15 0.915223 0.510634 0.324116
O O16 0.955141 0.702656 0.692486
#
# Coordination Sequence:
#
# PCOD9000479 Si02
#       8
#     1   1   1   1   1   1   1   1
#     4  11  25  42  68 107 136 180 234 294 359 422
#     4  10  27  48  69 105 141 195 235 292 345 419
#     4  10  27  48  69 106 140 195 235 295 340 422
#     4  11  24  43  68 105 138 180 229 298 357 421
#     4  12  25  46  72 100 143 187 240 285 359 428
#     4  11  24  43  72 104 137 188 227 298 368 411
#     4  10  25  46  68 103 143 180 242 291 345 435
#     4  11  25  42  70 106 140 181 234 299 359 422
#
# _framework density 25.003556
#
# number of rings (size 3 to 8) (size 9 to 14) (size 15 to 20)
#    0.750    0.500    2.500    1.500    5.250    3.000 
#    0.000    0.000    0.000    0.000    0.000    0.000 
#    0.000    0.000    0.000    0.000    0.000    0.000 
#
# Total GULP energy -44588.576936 kJ/mol
# GULP energy per Si atom -5573.572117 kJ/mol
# Density = 2.494665 g / cm^3
# Si number density = 25.003556 Si / 1000 Ang^3
#
#
#
# Elastic Constant Matrix: (Units=GPa)
#
#
# Indices 1 2 3 4 5 6 
#
# 1 76.6210 43.4445 38.2625 -15.6438 0.9012 -3.9511
# 2 43.4445 108.5131 47.1051 -25.4615 20.4555 5.7811
# 3 38.2625 47.1051 121.4863 -36.0534 33.7615 -1.8100
# 4 -15.6438 -25.4615 -36.0534 54.6707 -1.7357 9.0398
# 5 0.9012 20.4555 33.7615 -1.7357 44.2562 -13.7568
# 6 -3.9511 5.7811 -1.8100 9.0398 -13.7568 43.0107
#
#
#
# Elastic Compliance Matrix: (Units=1/GPa)
#
#
# Indices 1 2 3 4 5 6 
#
# 1 0.021143 -0.008617 -0.007464 -0.003714 0.011336 0.007193
# 2 -0.008617 0.016060 0.001243 0.006765 -0.010297 -0.007613
# 3 -0.007464 0.001243 0.017527 0.010724 -0.015666 -0.007380
# 4 -0.003714 0.006765 0.010724 0.028874 -0.013585 -0.011213
# 5 0.011336 -0.010297 -0.015666 -0.013585 0.044393 0.018820
# 6 0.007193 -0.007613 -0.007380 -0.011213 0.018820 0.033000
#
#
# Mechanical properties :
#
#
# Convention : Reuss Voigt Hill
#
# Bulk Modulus (GPa) = 39.91356 62.69386 51.30371
# Shear Modulus (GPa) = 25.12271 40.24141 32.68206
#
# Velocity S-wave (km/s) = 3.17324 4.01612 3.61930
# Velocity P-wave (km/s) = 5.42437 6.82891 6.16676
#
# Compressibility (1/GPa) = 0.02505414
#
# Stress axis : x y z
#
# Youngs Moduli (GPa) = 47.29617 62.26714 57.05620
#
# Poissons Ratio (x) = 0.53654 0.42585
# Poissons Ratio (y) = 0.40754 -0.07089
# Poissons Ratio (z) = 0.35300 -0.07737
#
# Static dielectric constant tensor:
#      x y z
#    x 2.021590 -0.040290 -0.009600 
#    y -0.040290 1.970920 0.006710 
#    z -0.009600 0.006710 2.094320 
# 
# From -- ./inp_files/2371.got.cif
#   From: 2010.05.17/outbox.cif.g08.bks.cpg/sg1_2_cif.got.tgz:2371.got - 2010.05.17 20:27:59.
