data_PCOD9000650
_publ_section_title
;
Structure prediction by ZEFSAII (Michael W. Deem and Ramdas Pophale) SiO2 
 PCOD9000650
Probable space group: P 1
;
_chemical_formula_sum "Si O2"
_cell_formula_units_Z 6
_cell_length_a 11.644972
_cell_length_b 4.901418
_cell_length_c 11.074201
_cell_angle_alpha 74.912540
_cell_angle_beta 27.221095
_cell_angle_gamma 91.444889
_cell_volume 227.177100
_symmetry_space_group_name_H-M "P 1"
_symmetry_group_IT_number 1
_symmetry_cell_setting 'triclinic'
loop_
_space_group_symop_operation_xyz
x,y,z
loop_
_atom_site_type_symbol
_atom_site_label
_atom_site_fract_x
_atom_site_fract_y
_atom_site_fract_z
Si Si1 0.934560 0.022930 0.517840
Si Si2 0.507134 0.379712 0.610448
Si Si3 0.044045 0.697983 0.240630
Si Si4 0.408836 0.475253 0.215733
Si Si5 0.407998 0.893420 0.548910
Si Si6 0.930307 0.430030 0.855979
O O1 0.036718 0.361783 0.307179
O O2 0.199583 0.163559 0.353927
O O3 0.905218 0.744858 0.485823
O O4 0.608839 0.836336 0.912772
O O5 0.847344 0.649360 0.312016
O O6 0.354046 0.585553 0.718752
O O7 0.470993 0.206490 0.535500
O O8 0.363474 0.066008 0.876328
O O9 0.172227 0.458267 0.532742
O O10 0.669888 0.453581 0.035466
O O11 0.130963 0.728132 0.732899
O O12 0.725614 0.059109 0.158182
#
# Coordination Sequence:
#
# PCOD9000650 Si02
#       6
#     1   1   1   1   1   1
#     4  12  26  47  75 110 149 197 248 308 374 446
#     4  12  25  46  73 108 147 194 247 308 372 444
#     4  12  25  46  73 108 147 194 247 308 372 444
#     4  12  27  49  76 112 152 199 251 310 374 448
#     4  12  26  47  75 110 149 197 248 308 374 446
#     4  12  27  49  76 112 152 199 251 310 374 448
#
# _framework density 26.411111999999999
#
# number of rings (size 3 to 8) (size 9 to 14) (size 15 to 20)
#    0.000    0.000    0.000   10.000    0.000    5.333 
#    0.000    0.000    0.000    0.000    0.000    0.000 
#    0.000    0.000    0.000    0.000    0.000    0.000 
#
# Total GULP energy -33697.688271 kJ/mol
# GULP energy per Si atom -5616.281378 kJ/mol
# Density = 2.635100 g / cm^3
# Si number density = 26.411112 Si / 1000 Ang^3
#
#
#
# Elastic Constant Matrix: (Units=GPa)
#
#
# Indices 1 2 3 4 5 6 
#
# 1 154.3862 45.5873 31.7625 10.2584 -36.1033 26.2862
# 2 45.5873 101.4288 15.8221 1.6369 -15.2817 20.2717
# 3 31.7625 15.8221 164.6292 0.7409 7.1421 7.0693
# 4 10.2584 1.6369 0.7409 46.1637 -3.5885 3.7995
# 5 -36.1033 -15.2817 7.1421 -3.5885 58.2148 -14.3455
# 6 26.2862 20.2717 7.0693 3.7995 -14.3455 44.5576
#
#
#
# Elastic Compliance Matrix: (Units=1/GPa)
#
#
# Indices 1 2 3 4 5 6 
#
# 1 0.009142 -0.002691 -0.001593 -0.001368 0.004495 -0.002353
# 2 -0.002691 0.011961 -0.000508 0.000531 0.000679 -0.003600
# 3 -0.001593 -0.000508 0.006542 0.000152 -0.002047 -0.000539
# 4 -0.001368 0.000531 0.000152 0.022072 0.000329 -0.001235
# 5 0.004495 0.000679 -0.002047 0.000329 0.021461 0.004246
# 6 -0.002353 -0.003600 -0.000539 -0.001235 0.004246 0.027027
#
#
# Mechanical properties :
#
#
# Convention : Reuss Voigt Hill
#
# Bulk Modulus (GPa) = 55.36593 67.42091 61.39342
# Shear Modulus (GPa) = 43.93354 51.60538 47.76946
#
# Velocity S-wave (km/s) = 4.08297 4.42512 4.25748
# Velocity P-wave (km/s) = 6.57542 7.18970 6.88941
#
# Compressibility (1/GPa) = 0.01806165
#
# Stress axis : x y z
#
# Youngs Moduli (GPa) = 109.38396 83.60463 152.86610
#
# Poissons Ratio (x) = 0.22498 0.24352
# Poissons Ratio (y) = 0.29435 0.07759
# Poissons Ratio (z) = 0.17425 0.04244
#
# Static dielectric constant tensor:
#      x y z
#    x 2.061430 -0.034850 0.087210 
#    y -0.034850 2.017300 0.013600 
#    z 0.087210 0.013600 2.053630 
# 
# From -- ./inp_files/1941.got.cif
#   From: 2010.05.17/outbox.cif.g08.bks.cpg/sg1_1_cif.got.tgz:1941.got - 2010.05.17 20:27:59.
