data_PCOD9000132
_publ_section_title
;
Structure prediction by ZEFSAII (Michael W. Deem and Ramdas Pophale) SiO2 
 PCOD9000132
Probable space group: P 1
;
_chemical_formula_sum "Si O2"
_cell_formula_units_Z 8
_cell_length_a 7.254711
_cell_length_b 14.918394
_cell_length_c 12.930154
_cell_angle_alpha 20.066654
_cell_angle_beta 49.541321
_cell_angle_gamma 57.566929
_cell_volume 350.686618
_symmetry_space_group_name_H-M "P 1"
_symmetry_group_IT_number 1
_symmetry_cell_setting 'triclinic'
loop_
_space_group_symop_operation_xyz
x,y,z
loop_
_atom_site_type_symbol
_atom_site_label
_atom_site_fract_x
_atom_site_fract_y
_atom_site_fract_z
Si Si1 0.247230 0.558070 0.171040
Si Si2 0.006580 0.229802 0.262818
Si Si3 0.722595 0.570594 0.379563
Si Si4 0.079160 0.056653 0.641303
Si Si5 0.054262 0.835228 0.268107
Si Si6 0.499280 0.615369 0.618325
Si Si7 0.359462 0.458653 0.454446
Si Si8 0.041953 0.797383 0.560410
O O1 0.246838 0.331017 0.333728
O O2 0.195092 0.145335 0.850961
O O3 0.417220 0.573208 0.193239
O O4 0.964219 0.464348 0.426228
O O5 0.943213 0.101532 0.536927
O O6 0.951478 0.014133 0.424488
O O7 0.311475 0.362757 0.018691
O O8 0.916251 0.490322 0.980389
O O9 0.521393 0.513207 0.604677
O O10 0.605920 0.473563 0.416460
O O11 0.852390 0.895528 0.973810
O O12 0.243074 0.838475 0.812770
O O13 0.213854 0.642681 0.371242
O O14 0.025071 0.816384 0.423192
O O15 0.775029 0.732824 0.434186
O O16 0.338313 0.832524 0.438359
#
# Coordination Sequence:
#
# PCOD9000132 Si02
#       8
#     1   1   1   1   1   1   1   1
#     4  10  22  39  61  86 124 152 202 241 295 348
#     4  10  22  42  64  83 121 163 198 242 297 350
#     4  10  22  38  63  89 121 154 198 243 301 346
#     4  10  22  42  64  83 121 163 198 242 297 350
#     4  12  23  36  59  92 126 152 193 246 302 350
#     4  10  22  38  63  89 121 154 198 243 301 346
#     4  12  23  36  59  92 126 152 193 246 302 350
#     4  10  22  39  61  86 124 152 202 241 295 348
#
# _framework density 22.812391999999999
#
# number of rings (size 3 to 8) (size 9 to 14) (size 15 to 20)
#    1.500    0.000    2.500    3.750    3.500    2.000 
#    0.000    2.500    0.000    0.000    0.000    0.000 
#    0.000    0.000    0.000    0.000    0.000    0.000 
#
# Total GULP energy -44648.859611 kJ/mol
# GULP energy per Si atom -5581.107451 kJ/mol
# Density = 2.276047 g / cm^3
# Si number density = 22.812392 Si / 1000 Ang^3
#
#
#
# Elastic Constant Matrix: (Units=GPa)
#
#
# Indices 1 2 3 4 5 6 
#
# 1 54.9329 10.7729 6.2632 -2.4289 4.7371 11.5862
# 2 10.7729 75.6091 29.0079 -19.1727 10.1209 13.9914
# 3 6.2632 29.0079 77.2888 -24.1728 31.5828 -11.2004
# 4 -2.4289 -19.1727 -24.1728 40.0314 -2.9064 2.3235
# 5 4.7371 10.1209 31.5828 -2.9064 30.0864 5.6719
# 6 11.5862 13.9914 -11.2004 2.3235 5.6719 31.0871
#
#
#
# Elastic Compliance Matrix: (Units=1/GPa)
#
#
# Indices 1 2 3 4 5 6 
#
# 1 0.020522 0.000157 -0.005018 -0.000843 0.003818 -0.010160
# 2 0.000157 0.020907 -0.013350 0.003672 0.010413 -0.016453
# 3 -0.005018 -0.013350 0.050159 0.017828 -0.052083 0.034121
# 4 -0.000843 0.003672 0.017828 0.035866 -0.017405 0.005579
# 5 0.003818 0.010413 -0.052083 -0.017405 0.089653 -0.039931
# 6 -0.010160 -0.016453 0.034121 0.005579 -0.039931 0.062521
#
#
# Mechanical properties :
#
#
# Convention : Reuss Voigt Hill
#
# Bulk Modulus (GPa) = 18.12738 33.32432 25.72585
# Shear Modulus (GPa) = 14.95031 31.02677 22.98854
#
# Velocity S-wave (km/s) = 2.56278 3.69193 3.17791
# Velocity P-wave (km/s) = 4.08909 5.72831 4.97665
#
# Compressibility (1/GPa) = 0.05516516
#
# Stress axis : x y z
#
# Youngs Moduli (GPa) = 48.72831 47.82973 19.93650
#
# Poissons Ratio (x) = -0.00749 0.10004
# Poissons Ratio (y) = -0.00763 0.26616
# Poissons Ratio (z) = 0.24451 0.63855
#
# Static dielectric constant tensor:
#      x y z
#    x 1.837080 -0.022060 -0.002290 
#    y -0.022060 1.830930 0.001100 
#    z -0.002290 0.001100 1.844250 
# 
# From -- ./inp_files/6578.got.cif
#   From: 2010.05.17/outbox.cif.g08.bks.cpg/sg1_4_cif.got.tgz:6578.got - 2010.05.17 20:27:59.
