data_PCOD9000469
_publ_section_title
;
Structure prediction by ZEFSAII (Michael W. Deem and Ramdas Pophale) SiO2 
 PCOD9000469
Probable space group: P 1
;
_chemical_formula_sum "Si O2"
_cell_formula_units_Z 6
_cell_length_a 5.075838
_cell_length_b 4.923593
_cell_length_c 9.856592
_cell_angle_alpha 99.074875
_cell_angle_beta 84.660693
_cell_angle_gamma 83.682695
_cell_volume 240.234719
_symmetry_space_group_name_H-M "P 1"
_symmetry_group_IT_number 1
_symmetry_cell_setting 'triclinic'
loop_
_space_group_symop_operation_xyz
x,y,z
loop_
_atom_site_type_symbol
_atom_site_label
_atom_site_fract_x
_atom_site_fract_y
_atom_site_fract_z
Si Si1 0.346040 0.388950 0.890210
Si Si2 0.276016 0.967116 0.073049
Si Si3 0.889527 0.331658 0.704461
Si Si4 0.027258 0.767667 0.512104
Si Si5 0.443248 0.001454 0.356848
Si Si6 0.920176 0.332960 0.305417
O O1 0.604990 0.426873 0.792782
O O2 0.118938 0.275935 0.802181
O O3 0.226147 0.687381 0.979469
O O4 0.428320 0.161379 0.985030
O O5 0.433563 0.864515 0.196159
O O6 0.017799 0.184950 0.148097
O O7 0.982654 0.559751 0.618057
O O8 0.876164 0.052476 0.599267
O O9 0.898390 0.659344 0.368184
O O10 0.331555 0.815237 0.464550
O O11 0.179128 0.227393 0.372742
O O12 0.670940 0.197774 0.358108
#
# Coordination Sequence:
#
# PCOD9000469 Si02
#       6
#     1   1   1   1   1   1
#     4  12  27  46  72 100 143 192 234 282 346 418
#     4  10  25  48  70 106 139 178 244 284 356 414
#     4  12  29  44  74 100 145 194 230 288 340 426
#     4  12  25  52  68 112 141 182 244 284 360 418
#     4  10  25  43  75 107 135 185 222 308 351 406
#     4  10  25  43  75 107 135 185 222 308 351 406
#
# _framework density 24.975577000000001
#
# number of rings (size 3 to 8) (size 9 to 14) (size 15 to 20)
#    1.000    0.000    1.667    3.000    7.000    4.000 
#    0.000    0.000    0.000    0.000    0.000    0.000 
#    0.000    0.000    0.000    0.000    0.000    0.000 
#
# Total GULP energy -33500.574621 kJ/mol
# GULP energy per Si atom -5583.429103 kJ/mol
# Density = 2.491873 g / cm^3
# Si number density = 24.975577 Si / 1000 Ang^3
#
#
#
# Elastic Constant Matrix: (Units=GPa)
#
#
# Indices 1 2 3 4 5 6 
#
# 1 94.8387 10.9555 29.5628 4.9459 -16.6022 47.0056
# 2 10.9555 136.1560 45.3337 2.6039 -17.5843 16.9494
# 3 29.5628 45.3337 128.0776 8.8072 -12.4945 10.7986
# 4 4.9459 2.6039 8.8072 37.1735 0.4246 1.3626
# 5 -16.6022 -17.5843 -12.4945 0.4246 28.2004 -7.8797
# 6 47.0056 16.9494 10.7986 1.3626 -7.8797 39.8567
#
#
#
# Elastic Compliance Matrix: (Units=1/GPa)
#
#
# Indices 1 2 3 4 5 6 
#
# 1 0.030296 0.004634 -0.004695 -0.002079 0.009015 -0.034575
# 2 0.004634 0.009709 -0.003337 -0.000284 0.005168 -0.007658
# 3 -0.004695 -0.003337 0.009887 -0.001658 0.000817 0.004496
# 4 -0.002079 -0.000284 -0.001658 0.027553 -0.002085 0.001668
# 5 0.009015 0.005168 0.000817 -0.002085 0.043140 -0.004451
# 6 -0.034575 -0.007658 0.004496 0.001668 -0.004451 0.066968
#
#
# Mechanical properties :
#
#
# Convention : Reuss Voigt Hill
#
# Bulk Modulus (GPa) = 23.20453 58.97514 41.08983
# Shear Modulus (GPa) = 23.95622 39.26081 31.60852
#
# Velocity S-wave (km/s) = 3.10043 3.96911 3.56135
# Velocity P-wave (km/s) = 4.70404 6.68352 5.77916
#
# Compressibility (1/GPa) = 0.04309504
#
# Stress axis : x y z
#
# Youngs Moduli (GPa) = 33.00803 102.99892 101.14036
#
# Poissons Ratio (x) = -0.47728 0.47490
# Poissons Ratio (y) = -0.15295 0.33747
# Poissons Ratio (z) = 0.15499 0.34367
#
# Static dielectric constant tensor:
#      x y z
#    x 2.038530 -0.088000 0.047580 
#    y -0.088000 2.073590 0.047820 
#    z 0.047580 0.047820 2.053720 
# 
# From -- ./inp_files/279.got.cif
#   From: 2010.05.17/outbox.cif.g08.bks.cpg/sg1_1_cif.got.tgz:279.got - 2010.05.17 20:27:59.
