data_PCOD9000543
_publ_section_title
;
Structure prediction by ZEFSAII (Michael W. Deem and Ramdas Pophale) SiO2 
 PCOD9000543
Probable space group: P 1
;
_chemical_formula_sum "Si O2"
_cell_formula_units_Z 8
_cell_length_a 15.375142
_cell_length_b 12.872205
_cell_length_c 8.971082
_cell_angle_alpha 31.393098
_cell_angle_beta 157.066121
_cell_angle_gamma 152.943920
_cell_volume 309.043236
_symmetry_space_group_name_H-M "P 1"
_symmetry_group_IT_number 1
_symmetry_cell_setting 'triclinic'
loop_
_space_group_symop_operation_xyz
x,y,z
loop_
_atom_site_type_symbol
_atom_site_label
_atom_site_fract_x
_atom_site_fract_y
_atom_site_fract_z
Si Si1 0.120960 0.990790 0.614510
Si Si2 0.135403 0.224228 0.627218
Si Si3 0.633188 0.758096 0.530857
Si Si4 0.378718 0.015724 0.715231
Si Si5 0.142963 0.462505 0.633580
Si Si6 0.389955 0.966608 0.442981
Si Si7 0.625741 0.519853 0.524635
Si Si8 0.647740 0.991579 0.543685
O O1 0.879622 0.744133 0.586208
O O2 0.109009 0.190801 0.447958
O O3 0.152075 0.015459 0.454712
O O4 0.384364 0.991203 0.079089
O O5 0.173155 0.424139 0.553057
O O6 0.884257 0.991181 0.578939
O O7 0.367845 0.179620 0.087502
O O8 0.595515 0.558218 0.605102
O O9 0.659661 0.791556 0.710197
O O10 0.400687 0.802638 0.070586
O O11 0.618162 0.278065 0.797372
O O12 0.384372 0.991171 0.579157
O O13 0.150505 0.704275 0.360824
O O14 0.889101 0.238224 0.572047
O O15 0.384364 0.491189 0.079107
O O16 0.616592 0.966902 0.703438
#
# Coordination Sequence:
#
# PCOD9000543 Si02
#       8
#     1   1   1   1   1   1   1   1
#     4   9  22  41  62  91 125 159 206 254 304 368
#     4   9  20  41  60  89 125 155 204 255 297 368
#     4   9  20  41  60  89 125 155 204 255 297 368
#     4  11  22  40  63  91 126 163 202 256 308 358
#     4  11  22  40  65  92 124 161 205 256 307 359
#     4  11  22  40  63  91 126 163 202 256 308 358
#     4  11  22  40  65  92 124 161 205 256 307 359
#     4   9  22  41  62  91 125 159 206 254 304 368
#
# _framework density 25.886347000000001
#
# number of rings (size 3 to 8) (size 9 to 14) (size 15 to 20)
#    0.000    2.000    2.500    0.000    0.000   12.000 
#    0.000    0.000    0.000    0.000    0.000    0.000 
#    0.000    0.000    0.000    0.000    0.000    0.000 
#
# Total GULP energy -44664.223067 kJ/mol
# GULP energy per Si atom -5583.027883 kJ/mol
# Density = 2.582743 g / cm^3
# Si number density = 25.886347 Si / 1000 Ang^3
#
#
#
# Elastic Constant Matrix: (Units=GPa)
#
#
# Indices 1 2 3 4 5 6 
#
# 1 275.1755 87.1046 10.6129 20.5369 -12.0382 -38.6527
# 2 87.1046 149.9414 20.4562 8.4693 1.9250 -24.5384
# 3 10.6129 20.4562 71.9460 12.0792 6.3021 -0.2287
# 4 20.5369 8.4693 12.0792 35.0286 6.5398 10.8803
# 5 -12.0382 1.9250 6.3021 6.5398 26.7117 6.6246
# 6 -38.6527 -24.5384 -0.2287 10.8803 6.6246 82.0403
#
#
#
# Elastic Compliance Matrix: (Units=1/GPa)
#
#
# Indices 1 2 3 4 5 6 
#
# 1 0.005074 -0.002517 0.000330 -0.003590 0.002800 0.001889
# 2 -0.002517 0.008677 -0.001923 -0.000133 -0.001659 0.001556
# 3 0.000330 -0.001923 0.015396 -0.004746 -0.002292 0.000438
# 4 -0.003590 -0.000133 -0.004746 0.035582 -0.007752 -0.005837
# 5 0.002800 -0.001659 -0.002292 -0.007752 0.041633 -0.001517
# 6 0.001889 0.001556 0.000438 -0.005837 -0.001517 0.014442
#
#
# Mechanical properties :
#
#
# Convention : Reuss Voigt Hill
#
# Bulk Modulus (GPa) = 47.78260 81.49000 64.63630
# Shear Modulus (GPa) = 36.76501 54.01541 45.39021
#
# Velocity S-wave (km/s) = 3.77271 4.57293 4.19196
# Velocity P-wave (km/s) = 6.12180 7.70912 6.96085
#
# Compressibility (1/GPa) = 0.02092812
#
# Stress axis : x y z
#
# Youngs Moduli (GPa) = 197.09967 115.24671 64.95031
#
# Poissons Ratio (x) = 0.29003 -0.02146
# Poissons Ratio (y) = 0.49602 0.12492
# Poissons Ratio (z) = -0.06514 0.22166
#
# Static dielectric constant tensor:
#      x y z
#    x 2.174300 -0.057490 -0.041450 
#    y -0.057490 2.033080 0.040020 
#    z -0.041450 0.040020 2.345950 
# 
# From -- ./inp_files/1622.got.cif
#   From: 2010.05.17/outbox.cif.g08.bks.cpg/sg1_1_cif.got.tgz:1622.got - 2010.05.17 20:27:59.
