data_PCOD9000356
_publ_section_title
;
Structure prediction by ZEFSAII (Michael W. Deem and Ramdas Pophale) SiO2 
 PCOD9000356
Probable space group: P 1
;
_chemical_formula_sum "Si O2"
_cell_formula_units_Z 8
_cell_length_a 5.479166
_cell_length_b 5.063590
_cell_length_c 13.321357
_cell_angle_alpha 114.432822
_cell_angle_beta 110.036068
_cell_angle_gamma 84.105644
_cell_volume 315.798406
_symmetry_space_group_name_H-M "P 1"
_symmetry_group_IT_number 1
_symmetry_cell_setting 'triclinic'
loop_
_space_group_symop_operation_xyz
x,y,z
loop_
_atom_site_type_symbol
_atom_site_label
_atom_site_fract_x
_atom_site_fract_y
_atom_site_fract_z
Si Si1 0.895830 0.558640 0.204860
Si Si2 0.856588 0.826638 0.785463
Si Si3 0.623995 0.354170 0.560125
Si Si4 0.111452 0.257537 0.014923
Si Si5 0.313743 0.748945 0.458287
Si Si6 0.098127 0.050055 0.648224
Si Si7 0.585584 0.953409 0.103016
Si Si8 0.352989 0.480950 0.877682
O O1 0.677529 0.788749 0.189020
O O2 0.039901 0.525532 0.113817
O O3 0.104773 0.653803 0.331577
O O4 0.766645 0.241038 0.158534
O O5 0.631425 0.587169 0.690439
O O6 0.930853 0.962039 0.708827
O O7 0.104785 0.653792 0.831571
O O8 0.856958 0.085352 0.906755
O O9 0.532039 0.518824 0.474119
O O10 0.442939 0.066539 0.504610
O O11 0.917340 0.246298 0.585234
O O12 0.292238 0.061284 0.077908
O O13 0.278724 0.345559 0.954321
O O14 0.169688 0.782055 0.549336
O O15 0.352622 0.222238 0.756392
O O16 0.578158 0.720415 0.972703
#
# Coordination Sequence:
#
# PCOD9000356 Si02
#       8
#     1   1   1   1   1   1   1   1
#     4  12  28  44  67  99 131 179 228 261 322 395
#     4   9  20  43  69 100 132 168 215 271 340 386
#     4  11  24  46  67  99 132 174 220 269 335 380
#     4  10  23  45  69  98 139 166 214 282 323 395
#     4  12  28  44  67  99 131 179 228 261 322 395
#     4  10  23  45  69  98 139 166 214 282 323 395
#     4  11  24  46  67  99 132 174 220 269 335 380
#     4   9  20  43  69 100 132 168 215 271 340 386
#
# _framework density 25.332619000000001
#
# number of rings (size 3 to 8) (size 9 to 14) (size 15 to 20)
#    0.000    1.500    2.500    0.750    7.000    4.000 
#    0.000    0.000    0.000    0.000    0.000    0.000 
#    0.000    0.000    0.000    0.000    0.000    0.000 
#
# Total GULP energy -44766.995822 kJ/mol
# GULP energy per Si atom -5595.874478 kJ/mol
# Density = 2.527496 g / cm^3
# Si number density = 25.332619 Si / 1000 Ang^3
#
#
#
# Elastic Constant Matrix: (Units=GPa)
#
#
# Indices 1 2 3 4 5 6 
#
# 1 53.3711 30.3926 50.8671 1.8869 21.6881 4.8098
# 2 30.3926 151.8408 68.7781 -13.0649 34.8721 9.2728
# 3 50.8671 68.7781 202.6836 -1.0401 61.4511 -1.9209
# 4 1.8869 -13.0649 -1.0401 42.2898 -4.9135 23.7171
# 5 21.6881 34.8721 61.4511 -4.9135 44.9105 4.9358
# 6 4.8098 9.2728 -1.9209 23.7171 4.9358 49.2276
#
#
#
# Elastic Compliance Matrix: (Units=1/GPa)
#
#
# Indices 1 2 3 4 5 6 
#
# 1 0.026395 -0.002279 -0.004259 -0.002197 -0.005310 -0.000725
# 2 -0.002279 0.009019 -0.001655 0.004428 -0.002780 -0.003395
# 3 -0.004259 -0.001655 0.009948 -0.003584 -0.011096 0.003955
# 4 -0.002197 0.004428 -0.003584 0.036928 0.008701 -0.019423
# 5 -0.005310 -0.002780 -0.011096 0.008701 0.044003 -0.007995
# 6 -0.000725 -0.003395 0.003955 -0.019423 -0.007995 0.031338
#
#
# Mechanical properties :
#
#
# Convention : Reuss Voigt Hill
#
# Bulk Modulus (GPa) = 34.51360 78.66347 56.58854
# Shear Modulus (GPa) = 27.22202 44.47609 35.84906
#
# Velocity S-wave (km/s) = 3.28164 4.19463 3.76591
# Velocity P-wave (km/s) = 5.29270 7.38780 6.42621
#
# Compressibility (1/GPa) = 0.02897408
#
# Stress axis : x y z
#
# Youngs Moduli (GPa) = 37.88654 110.88296 100.52631
#
# Poissons Ratio (x) = 0.25274 0.42815
# Poissons Ratio (y) = 0.08636 0.16636
# Poissons Ratio (z) = 0.16136 0.18350
#
# Static dielectric constant tensor:
#      x y z
#    x 2.067970 -0.009480 -0.017920 
#    y -0.009480 2.071260 0.058280 
#    z -0.017920 0.058280 1.965660 
# 
# From -- ./inp_files/2613.got.cif
#   From: 2010.05.17/outbox.cif.g08.bks.cpg/sg1_2_cif.got.tgz:2613.got - 2010.05.17 20:27:59.
