data_PCOD9000975
_publ_section_title
;
Structure prediction by ZEFSAII (Michael W. Deem and Ramdas Pophale) SiO2 
 PCOD9000975
Probable space group: P 1
;
_chemical_formula_sum "Si O2"
_cell_formula_units_Z 8
_cell_length_a 12.360629
_cell_length_b 5.106772
_cell_length_c 10.966394
_cell_angle_alpha 91.363580
_cell_angle_beta 35.115855
_cell_angle_gamma 103.156523
_cell_volume 371.089314
_symmetry_space_group_name_H-M "P 1"
_symmetry_group_IT_number 1
_symmetry_cell_setting 'triclinic'
loop_
_space_group_symop_operation_xyz
x,y,z
loop_
_atom_site_type_symbol
_atom_site_label
_atom_site_fract_x
_atom_site_fract_y
_atom_site_fract_z
Si Si1 0.889140 0.774890 0.259290
Si Si2 0.855905 0.144948 0.505179
Si Si3 0.473712 0.256537 0.855244
Si Si4 0.041863 0.354629 0.983509
Si Si5 0.491154 0.620806 0.471843
Si Si6 0.587422 0.046259 0.969004
Si Si7 0.643033 0.199517 0.199176
Si Si8 0.268141 0.652919 0.098541
O O1 0.660079 0.649662 0.418807
O O2 0.881475 0.894680 0.401956
O O3 0.993114 0.550925 0.131954
O O4 0.998760 0.050766 0.078451
O O5 0.056230 0.418537 0.323752
O O6 0.673102 0.225592 0.614868
O O7 0.775509 0.040315 0.713778
O O8 0.389598 0.495926 0.907285
O O9 0.534623 0.284534 0.943781
O O10 0.300329 0.947347 0.004542
O O11 0.266345 0.486621 0.727758
O O12 0.874679 0.321430 0.032615
O O13 0.533663 0.927226 0.380356
O O14 0.539323 0.425409 0.323511
O O15 0.627665 0.110118 0.072102
O O16 0.394296 0.774228 0.107776
#
# Coordination Sequence:
#
# PCOD9000975 Si02
#       8
#     1   1   1   1   1   1   1   1
#     4  10  22  38  59  87 113 144 191 235 275 338
#     4   9  21  38  58  85 117 152 179 231 285 332
#     4   8  21  35  52  80 116 144 187 219 266 337
#     4  10  22  40  60  84 110 148 194 232 282 330
#     4  10  22  39  61  80 114 148 189 237 285 315
#     4   8  22  37  56  86 119 143 189 227 275 344
#     4  10  21  39  58  86 113 146 189 236 273 338
#     4   9  19  36  52  78 114 151 182 219 269 332
#
# _framework density 21.558154999999999
#
# number of rings (size 3 to 8) (size 9 to 14) (size 15 to 20)
#    1.500    1.000    0.000    0.750    1.750    9.000 
#    0.000    0.000    0.000    0.000    0.000    0.000 
#    0.000    0.000    0.000    0.000    0.000    0.000 
#
# Total GULP energy -44646.872704 kJ/mol
# GULP energy per Si atom -5580.859088 kJ/mol
# Density = 2.150909 g / cm^3
# Si number density = 21.558155 Si / 1000 Ang^3
#
#
#
# Elastic Constant Matrix: (Units=GPa)
#
#
# Indices 1 2 3 4 5 6 
#
# 1 57.8152 26.6381 37.2326 1.4522 -0.2420 21.8976
# 2 26.6381 100.1704 40.5626 4.9325 -11.0104 18.1996
# 3 37.2326 40.5626 152.1795 -14.7498 -23.4023 33.8542
# 4 1.4522 4.9325 -14.7498 32.0233 5.0590 -6.5844
# 5 -0.2420 -11.0104 -23.4023 5.0590 27.1382 7.7482
# 6 21.8976 18.1996 33.8542 -6.5844 7.7482 44.6503
#
#
#
# Elastic Compliance Matrix: (Units=1/GPa)
#
#
# Indices 1 2 3 4 5 6 
#
# 1 0.024507 -0.003489 -0.003924 -0.003747 -0.001630 -0.007891
# 2 -0.003489 0.013093 -0.001025 -0.004309 0.006518 -0.004615
# 3 -0.003924 -0.001025 0.011577 0.002197 0.011434 -0.008095
# 4 -0.003747 -0.004309 0.002197 0.036353 -0.009201 0.008885
# 5 -0.001630 0.006518 0.011434 -0.009201 0.057285 -0.021824
# 6 -0.007891 -0.004615 -0.008095 0.008885 -0.021824 0.039383
#
#
# Mechanical properties :
#
#
# Convention : Reuss Voigt Hill
#
# Bulk Modulus (GPa) = 30.95917 57.67019 44.31468
# Shear Modulus (GPa) = 23.82754 34.47781 29.15267
#
# Velocity S-wave (km/s) = 3.32816 4.00345 3.68133
# Velocity P-wave (km/s) = 5.40008 6.94113 6.21853
#
# Compressibility (1/GPa) = 0.03230060
#
# Stress axis : x y z
#
# Youngs Moduli (GPa) = 40.80414 76.37695 86.38052
#
# Poissons Ratio (x) = 0.26648 0.33899
# Poissons Ratio (y) = 0.14237 0.08852
# Poissons Ratio (z) = 0.16013 0.07827
#
# Static dielectric constant tensor:
#      x y z
#    x 1.839230 -0.006030 -0.036860 
#    y -0.006030 1.783400 -0.021550 
#    z -0.036860 -0.021550 1.777230 
# 
# From -- ./inp_files/510.got.cif
#   From: 2010.05.17/outbox.cif.g08.bks.cpg/sg1_1_cif.got.tgz:510.got - 2010.05.17 20:27:59.
