data_PCOD9000147
_publ_section_title
;
Structure prediction by ZEFSAII (Michael W. Deem and Ramdas Pophale) SiO2 
 PCOD9000147
Probable space group: P 1
;
_chemical_formula_sum "Si O2"
_cell_formula_units_Z 8
_cell_length_a 4.939462
_cell_length_b 11.790229
_cell_length_c 11.335305
_cell_angle_alpha 147.264811
_cell_angle_beta 83.954712
_cell_angle_gamma 86.514737
_cell_volume 341.017953
_symmetry_space_group_name_H-M "P 1"
_symmetry_group_IT_number 1
_symmetry_cell_setting 'triclinic'
loop_
_space_group_symop_operation_xyz
x,y,z
loop_
_atom_site_type_symbol
_atom_site_label
_atom_site_fract_x
_atom_site_fract_y
_atom_site_fract_z
Si Si1 0.534050 0.816800 0.179110
Si Si2 0.993053 0.392381 0.821285
Si Si3 0.061342 0.108942 0.977512
Si Si4 0.452307 0.275340 0.497374
Si Si5 0.971190 0.905487 0.401813
Si Si6 0.994495 0.541405 0.222729
Si Si7 0.676122 0.807279 0.673122
Si Si8 0.937652 0.398139 0.463383
O O1 0.210916 0.819136 0.215373
O O2 0.667947 0.883672 0.353109
O O3 0.533272 0.011906 0.261754
O O4 0.745237 0.583179 0.941359
O O5 0.274190 0.349665 0.690766
O O6 0.995072 0.467639 0.022584
O O7 0.933960 0.159593 0.633201
O O8 0.348193 0.916777 0.804949
O O9 0.829581 0.002494 0.837968
O O10 0.125005 0.313000 0.082628
O O11 0.959385 0.216191 0.202185
O O12 0.732626 0.346970 0.526726
O O13 0.241470 0.371132 0.483733
O O14 0.096530 0.758952 0.381853
O O15 0.729501 0.659877 0.422344
O O16 0.814845 0.634336 0.617231
#
# Coordination Sequence:
#
# PCOD9000147 Si02
#       8
#     1   1   1   1   1   1   1   1
#     4  10  23  40  61  92 131 175 216 254 310 382
#     4  10  23  42  66  97 138 174 206 262 327 382
#     4  11  25  46  70  94 128 171 216 276 328 368
#     4  11  23  42  67  97 133 171 216 264 318 390
#     4  10  22  40  61  93 133 171 214 256 309 386
#     4  10  24  42  68 100 132 169 216 264 322 393
#     4  11  25  45  70  97 126 169 221 271 325 382
#     4  11  25  45  67  96 129 168 223 271 317 383
#
# _framework density 23.459178000000001
#
# number of rings (size 3 to 8) (size 9 to 14) (size 15 to 20)
#    0.000    1.500    0.000    3.750    0.000   21.000 
#    0.000    3.750    0.000    0.000    0.000    0.000 
#    0.000    0.000    0.000    0.000    0.000    0.000 
#
# Total GULP energy -44652.986317 kJ/mol
# GULP energy per Si atom -5581.623290 kJ/mol
# Density = 2.340578 g / cm^3
# Si number density = 23.459178 Si / 1000 Ang^3
#
#
#
# Elastic Constant Matrix: (Units=GPa)
#
#
# Indices 1 2 3 4 5 6 
#
# 1 62.1247 -4.1241 16.9837 4.9706 -11.2177 -3.9328
# 2 -4.1241 106.5066 44.6849 18.2297 -15.4674 4.3229
# 3 16.9837 44.6849 144.3214 3.6877 -19.9225 -2.2639
# 4 4.9706 18.2297 3.6877 49.8886 -11.5501 4.5082
# 5 -11.2177 -15.4674 -19.9225 -11.5501 28.2141 6.8514
# 6 -3.9328 4.3229 -2.2639 4.5082 6.8514 23.3529
#
#
#
# Elastic Compliance Matrix: (Units=1/GPa)
#
#
# Indices 1 2 3 4 5 6 
#
# 1 0.018157 0.002684 -0.002012 -0.001162 0.006638 0.000643
# 2 0.002684 0.012283 -0.003419 -0.003116 0.004832 -0.002969
# 3 -0.002012 -0.003419 0.008778 0.001869 0.004413 -0.000510
# 4 -0.001162 -0.003116 0.001869 0.024347 0.010897 -0.007335
# 5 0.006638 0.004832 0.004413 0.010897 0.052394 -0.016824
# 6 0.000643 -0.002969 -0.000510 -0.007335 -0.016824 0.049782
#
#
# Mechanical properties :
#
#
# Convention : Reuss Voigt Hill
#
# Bulk Modulus (GPa) = 29.65184 47.56017 38.60601
# Shear Modulus (GPa) = 27.40110 37.31833 32.35971
#
# Velocity S-wave (km/s) = 3.42136 3.99278 3.71806
# Velocity P-wave (km/s) = 5.31740 6.44779 5.90969
#
# Compressibility (1/GPa) = 0.03372472
#
# Stress axis : x y z
#
# Youngs Moduli (GPa) = 55.07491 81.41348 113.92559
#
# Poissons Ratio (x) = -0.21851 0.22917
# Poissons Ratio (y) = -0.14782 0.38949
# Poissons Ratio (z) = 0.11079 0.27834
#
# Static dielectric constant tensor:
#      x y z
#    x 1.858640 -0.007490 0.034160 
#    y -0.007490 1.917020 0.002220 
#    z 0.034160 0.002220 1.908610 
# 
# From -- ./inp_files/6109.got.cif
#   From: 2010.05.17/outbox.cif.g08.bks.cpg/sg1_4_cif.got.tgz:6109.got - 2010.05.17 20:27:59.
