data_PCOD9000563
_publ_section_title
;
Structure prediction by ZEFSAII (Michael W. Deem and Ramdas Pophale) SiO2 
 PCOD9000563
Probable space group: P 1
;
_chemical_formula_sum "Si O2"
_cell_formula_units_Z 6
_cell_length_a 6.952230
_cell_length_b 5.480757
_cell_length_c 7.706734
_cell_angle_alpha 59.443994
_cell_angle_beta 58.105486
_cell_angle_gamma 84.196256
_cell_volume 208.986837
_symmetry_space_group_name_H-M "P 1"
_symmetry_group_IT_number 1
_symmetry_cell_setting 'triclinic'
loop_
_space_group_symop_operation_xyz
x,y,z
loop_
_atom_site_type_symbol
_atom_site_label
_atom_site_fract_x
_atom_site_fract_y
_atom_site_fract_z
Si Si1 0.934000 0.674340 0.243460
Si Si2 0.414084 0.718920 0.216794
Si Si3 0.853470 0.891658 0.723424
Si Si4 0.035402 0.226415 0.154767
Si Si5 0.368195 0.033934 0.494383
Si Si6 0.559108 0.536827 0.745939
O O1 0.946404 0.516036 0.116136
O O2 0.711397 0.505634 0.518097
O O3 0.173723 0.682244 0.233869
O O4 0.926704 0.010598 0.133274
O O5 0.391156 0.869695 0.358633
O O6 0.443790 0.384611 0.338618
O O7 0.633522 0.914083 0.938486
O O8 0.739944 0.578472 0.802939
O O9 0.093394 0.971896 0.681427
O O10 0.948171 0.070476 0.435202
O O11 0.313165 0.317537 0.969560
O O12 0.484537 0.849024 0.641450
#
# Coordination Sequence:
#
# PCOD9000563 Si02
#       6
#     1   1   1   1   1   1
#     4  11  23  42  74  99 136 187 228 287 344 412
#     4  12  25  49  73 105 144 185 238 290 357 414
#     4  11  24  46  76  98 147 183 236 289 349 419
#     4  11  24  42  73 105 133 189 233 279 357 408
#     4  12  28  47  70 112 139 188 234 294 355 415
#     4  11  26  46  76 103 147 182 239 291 352 424
#
# _framework density 28.709942000000002
#
# number of rings (size 3 to 8) (size 9 to 14) (size 15 to 20)
#    0.000    0.667    6.667    0.000    2.333   10.667 
#    0.000    0.000    0.000    0.000    0.000    0.000 
#    0.000    0.000    0.000    0.000    0.000    0.000 
#
# Total GULP energy -33591.293910 kJ/mol
# GULP energy per Si atom -5598.548985 kJ/mol
# Density = 2.864460 g / cm^3
# Si number density = 28.709942 Si / 1000 Ang^3
#
#
#
# Elastic Constant Matrix: (Units=GPa)
#
#
# Indices 1 2 3 4 5 6 
#
# 1 160.5120 16.4502 56.7644 -4.7254 -47.9817 -5.7438
# 2 16.4502 222.9641 70.5012 6.7273 -10.0205 14.9799
# 3 56.7644 70.5012 218.8961 -4.8572 -61.8754 -2.2551
# 4 -4.7254 6.7273 -4.8572 57.9676 -7.6821 -2.9360
# 5 -47.9817 -10.0205 -61.8754 -7.6821 72.7931 -0.4824
# 6 -5.7438 14.9799 -2.2551 -2.9360 -0.4824 34.5660
#
#
#
# Elastic Compliance Matrix: (Units=1/GPa)
#
#
# Indices 1 2 3 4 5 6 
#
# 1 0.008034 -0.000359 -0.000516 0.001395 0.004965 0.001645
# 2 -0.000359 0.005311 -0.002065 -0.001136 -0.001398 -0.002612
# 3 -0.000516 -0.002065 0.006964 0.001581 0.005472 0.001474
# 4 0.001395 -0.001136 0.001581 0.018290 0.004053 0.002437
# 5 0.004965 -0.001398 0.005472 0.004053 0.021913 0.002438
# 6 0.001645 -0.002612 0.001474 0.002437 0.002438 0.030673
#
#
# Mechanical properties :
#
#
# Convention : Reuss Voigt Hill
#
# Bulk Modulus (GPa) = 69.30397 98.86708 84.08553
# Shear Modulus (GPa) = 49.08018 63.64243 56.36130
#
# Velocity S-wave (km/s) = 4.13912 4.71333 4.43553
# Velocity P-wave (km/s) = 6.85819 8.00824 7.45543
#
# Compressibility (1/GPa) = 0.01442919
#
# Stress axis : x y z
#
# Youngs Moduli (GPa) = 124.47782 188.27554 143.58995
#
# Poissons Ratio (x) = 0.06757 0.07414
# Poissons Ratio (y) = 0.04467 0.29649
# Poissons Ratio (z) = 0.06427 0.38876
#
# Static dielectric constant tensor:
#      x y z
#    x 2.219840 -0.092350 0.068280 
#    y -0.092350 2.356010 -0.068260 
#    z 0.068280 -0.068260 2.223020 
# 
# From -- ./inp_files/3357.got.cif
#   From: 2010.05.17/outbox.cif.g08.bks.cpg/sg1_2_cif.got.tgz:3357.got - 2010.05.17 20:27:59.
