data_PCOD9000457
_publ_section_title
;
Structure prediction by ZEFSAII (Michael W. Deem and Ramdas Pophale) SiO2 
 PCOD9000457
Probable space group: P 1
;
_chemical_formula_sum "Si O2"
_cell_formula_units_Z 8
_cell_length_a 14.332448
_cell_length_b 7.119852
_cell_length_c 5.066878
_cell_angle_alpha 70.996013
_cell_angle_beta 112.736440
_cell_angle_gamma 138.124526
_cell_volume 317.715430
_symmetry_space_group_name_H-M "P 1"
_symmetry_group_IT_number 1
_symmetry_cell_setting 'triclinic'
loop_
_space_group_symop_operation_xyz
x,y,z
loop_
_atom_site_type_symbol
_atom_site_label
_atom_site_fract_x
_atom_site_fract_y
_atom_site_fract_z
Si Si1 0.096620 0.468170 0.266490
Si Si2 0.707015 0.184943 0.532117
Si Si3 0.710869 0.576275 0.624561
Si Si4 0.210859 0.242867 0.721838
Si Si5 0.954364 0.633839 0.902879
Si Si6 0.270912 0.710719 0.830907
Si Si7 0.460133 0.328319 0.858786
Si Si8 0.656367 0.851417 0.144314
O O1 0.102934 0.244409 0.452064
O O2 0.217925 0.718234 0.486977
O O3 0.144078 0.543998 0.980741
O O4 0.968055 0.445624 0.157993
O O5 0.650313 0.013386 0.282589
O O6 0.642884 0.306540 0.494700
O O7 0.877098 0.470611 0.614371
O O8 0.679760 0.992982 0.828261
O O9 0.842412 0.643656 0.879886
O O10 0.595865 0.498905 0.737562
O O11 0.764373 0.834531 0.387279
O O12 0.294741 0.512921 0.882301
O O13 0.327039 0.287154 0.655442
O O14 0.109432 0.945247 0.893161
O O15 0.395600 0.018638 0.939784
O O16 0.519691 0.517596 0.099249
#
# Coordination Sequence:
#
# PCOD9000457 Si02
#       8
#     1   1   1   1   1   1   1   1
#     4  10  24  50  75 112 153 198 255 312 380 458
#     4  10  28  47  77 114 154 206 254 314 383 463
#     4  10  28  46  79 114 158 200 257 314 386 460
#     4  10  26  48  81 112 153 205 250 323 387 450
#     4  10  24  51  78 115 152 202 257 317 382 465
#     4  10  26  46  79 113 152 202 253 316 386 456
#     4  12  26  51  77 119 152 204 260 316 383 466
#     4  12  26  51  74 113 158 205 254 316 385 454
#
# _framework density 25.179769
#
# number of rings (size 3 to 8) (size 9 to 14) (size 15 to 20)
#    1.500    0.000    2.500    0.000    7.000    4.000 
#    4.500    0.000    0.000    0.000    0.000    0.000 
#    0.000    0.000    0.000    0.000    0.000    0.000 
#
# Total GULP energy -44620.961291 kJ/mol
# GULP energy per Si atom -5577.620161 kJ/mol
# Density = 2.512246 g / cm^3
# Si number density = 25.179769 Si / 1000 Ang^3
#
#
#
# Elastic Constant Matrix: (Units=GPa)
#
#
# Indices 1 2 3 4 5 6 
#
# 1 168.8147 48.3654 46.5398 -7.1665 6.7146 -28.5093
# 2 48.3654 145.5964 32.4682 11.1928 -4.7434 -36.3517
# 3 46.5398 32.4682 64.7148 11.4497 -8.2431 -10.5785
# 4 -7.1665 11.1928 11.4497 50.6901 -14.4038 -0.1715
# 5 6.7146 -4.7434 -8.2431 -14.4038 38.4290 1.3973
# 6 -28.5093 -36.3517 -10.5785 -0.1715 1.3973 31.7979
#
#
#
# Elastic Compliance Matrix: (Units=1/GPa)
#
#
# Indices 1 2 3 4 5 6 
#
# 1 0.008768 -0.000473 -0.005819 0.002030 -0.002278 0.005496
# 2 -0.000473 0.010428 -0.002895 -0.001764 -0.000295 0.010538
# 3 -0.005819 -0.002895 0.022083 -0.004061 0.003924 -0.001374
# 4 0.002030 -0.001764 -0.004061 0.023418 0.007397 -0.001746
# 5 -0.002278 -0.000295 0.003924 0.007397 0.030084 -0.002356
# 6 0.005496 0.010538 -0.001374 -0.001746 -0.002356 0.048060
#
#
# Mechanical properties :
#
#
# Convention : Reuss Voigt Hill
#
# Bulk Modulus (GPa) = 43.65752 70.43029 57.04390
# Shear Modulus (GPa) = 29.61210 40.96688 35.28949
#
# Velocity S-wave (km/s) = 3.43305 4.03796 3.74773
# Velocity P-wave (km/s) = 5.75242 7.05491 6.43670
#
# Compressibility (1/GPa) = 0.02290556
#
# Stress axis : x y z
#
# Youngs Moduli (GPa) = 114.04563 95.89640 45.28288
#
# Poissons Ratio (x) = 0.04538 0.26352
# Poissons Ratio (y) = 0.05396 0.13107
# Poissons Ratio (z) = 0.66367 0.27758
#
# Static dielectric constant tensor:
#      x y z
#    x 2.032190 0.025330 0.052940 
#    y 0.025330 2.006800 -0.009590 
#    z 0.052940 -0.009590 2.018010 
# 
# From -- ./inp_files/2627.got.cif
#   From: 2010.05.17/outbox.cif.g08.bks.cpg/sg1_2_cif.got.tgz:2627.got - 2010.05.17 20:27:59.
