data_PCOD9000533
_publ_section_title
;
Structure prediction by ZEFSAII (Michael W. Deem and Ramdas Pophale) SiO2 
 PCOD9000533
Probable space group: P 1
;
_chemical_formula_sum "Si O2"
_cell_formula_units_Z 8
_cell_length_a 10.825658
_cell_length_b 7.154311
_cell_length_c 7.579742
_cell_angle_alpha 38.779380
_cell_angle_beta 103.885807
_cell_angle_gamma 117.798033
_cell_volume 317.060067
_symmetry_space_group_name_H-M "P 1"
_symmetry_group_IT_number 1
_symmetry_cell_setting 'triclinic'
loop_
_space_group_symop_operation_xyz
x,y,z
loop_
_atom_site_type_symbol
_atom_site_label
_atom_site_fract_x
_atom_site_fract_y
_atom_site_fract_z
Si Si1 0.929330 0.147590 0.340610
Si Si2 0.399726 0.878273 0.511765
Si Si3 0.682576 0.648901 0.151383
Si Si4 0.990983 0.644639 0.304895
Si Si5 0.554853 0.175801 0.707278
Si Si6 0.737138 0.452974 0.939127
Si Si7 0.435905 0.242006 0.900525
Si Si8 0.091275 0.364189 0.867888
O O1 0.006101 0.412131 0.329660
O O2 0.871217 0.770442 0.668654
O O3 0.790513 0.197778 0.214774
O O4 0.019896 0.242502 0.123191
O O5 0.642056 0.568967 0.405281
O O6 0.248430 0.671414 0.706074
O O7 0.379644 0.045932 0.204364
O O8 0.442612 0.599567 0.659366
O O9 0.841698 0.660695 0.218740
O O10 0.512957 0.141985 0.492677
O O11 0.672272 0.563840 0.998397
O O12 0.637727 0.951664 0.897023
O O13 0.005670 0.483223 0.613503
O O14 0.101687 0.038404 0.033956
O O15 0.397353 0.066534 0.825963
O O16 0.598962 0.281328 0.891588
#
# Coordination Sequence:
#
# PCOD9000533 Si02
#       8
#     1   1   1   1   1   1   1   1
#     4  11  25  43  66 105 133 178 221 280 341 395
#     4  12  26  49  66  99 143 179 234 275 326 407
#     4  11  22  42  69  99 143 169 216 285 347 397
#     4  11  25  45  67 105 136 178 224 283 340 396
#     4  12  24  43  69 101 133 182 220 280 342 397
#     4  11  21  42  69  99 145 164 217 289 341 401
#     4  12  26  43  70 104 133 183 225 280 345 396
#     4  12  27  45  72  96 138 191 227 268 332 417
#
# _framework density 25.231812999999999
#
# number of rings (size 3 to 8) (size 9 to 14) (size 15 to 20)
#    0.000    0.500    2.500    6.750    5.250    2.000 
#    0.000    0.000    0.000    0.000    0.000    0.000 
#    0.000    0.000    0.000    0.000    0.000    0.000 
#
# Total GULP energy -44617.467405 kJ/mol
# GULP energy per Si atom -5577.183426 kJ/mol
# Density = 2.517438 g / cm^3
# Si number density = 25.231813 Si / 1000 Ang^3
#
#
#
# Elastic Constant Matrix: (Units=GPa)
#
#
# Indices 1 2 3 4 5 6 
#
# 1 92.4687 61.4404 48.0648 -16.5949 10.5901 23.0811
# 2 61.4404 169.4120 77.3964 -5.7574 -0.7955 -1.7412
# 3 48.0648 77.3964 172.1863 -15.8499 7.9015 37.1680
# 4 -16.5949 -5.7574 -15.8499 57.1810 -11.8909 -18.4935
# 5 10.5901 -0.7955 7.9015 -11.8909 45.5176 -3.1119
# 6 23.0811 -1.7412 37.1680 -18.4935 -3.1119 51.6659
#
#
#
# Elastic Compliance Matrix: (Units=1/GPa)
#
#
# Indices 1 2 3 4 5 6 
#
# 1 0.017913 -0.006579 0.000020 0.000940 -0.004600 -0.008179
# 2 -0.006579 0.010422 -0.004419 0.000824 0.003171 0.006955
# 3 0.000020 -0.004419 0.009416 -0.000697 -0.002399 -0.007326
# 4 0.000940 0.000824 -0.000697 0.021574 0.006113 0.008200
# 5 -0.004600 0.003171 -0.002399 0.006113 0.025630 0.007620
# 6 -0.008179 0.006955 -0.007326 0.008200 0.007620 0.031908
#
#
# Mechanical properties :
#
#
# Convention : Reuss Voigt Hill
#
# Bulk Modulus (GPa) = 63.31529 89.76335 76.53932
# Shear Modulus (GPa) = 34.70228 47.35061 41.02644
#
# Velocity S-wave (km/s) = 3.71258 4.33670 4.03672
# Velocity P-wave (km/s) = 6.59739 7.79286 7.21991
#
# Compressibility (1/GPa) = 0.01579397
#
# Stress axis : x y z
#
# Youngs Moduli (GPa) = 55.82667 95.94929 106.20679
#
# Poissons Ratio (x) = 0.63128 -0.00216
# Poissons Ratio (y) = 0.36730 0.46935
# Poissons Ratio (z) = -0.00113 0.42402
#
# Static dielectric constant tensor:
#      x y z
#    x 2.085530 0.070120 -0.014150 
#    y 0.070120 2.220730 0.076210 
#    z -0.014150 0.076210 1.885750 
# 
# From -- ./inp_files/5325.got.cif
#   From: 2010.05.17/outbox.cif.g08.bks.cpg/sg1_3_cif.got.tgz:5325.got - 2010.05.17 20:27:59.
