data_PCOD9000001
_publ_section_title
;
Structure prediction by ZEFSAII (Michael W. Deem and Ramdas Pophale) SiO2 
 PCOD9000001
Probable space group: P 1
;
_chemical_formula_sum "Si O2"
_cell_formula_units_Z 8
_cell_length_a 12.351026
_cell_length_b 5.099816
_cell_length_c 6.017307
_cell_angle_alpha 98.259872
_cell_angle_beta 105.441609
_cell_angle_gamma 103.252882
_cell_volume 347.039503
_symmetry_space_group_name_H-M "P 1"
_symmetry_group_IT_number 1
_symmetry_cell_setting 'triclinic'
loop_
_space_group_symop_operation_xyz
x,y,z
loop_
_atom_site_type_symbol
_atom_site_label
_atom_site_fract_x
_atom_site_fract_y
_atom_site_fract_z
Si Si1 0.654600 0.581880 0.938420
Si Si2 0.562011 0.007250 0.644664
Si Si3 0.293887 0.728516 0.439451
Si Si4 0.964256 0.923254 0.632111
Si Si5 0.085727 0.704156 0.058412
Si Si6 0.873389 0.450671 0.161124
Si Si7 0.170984 0.159151 0.506795
Si Si8 0.741168 0.009623 0.395671
O O1 0.567672 0.276853 0.828319
O O2 0.615670 0.793016 0.782074
O O3 0.781262 0.530753 0.956319
O O4 0.672470 0.717596 0.210143
O O5 0.643789 0.107388 0.486759
O O6 0.430007 0.850961 0.489318
O O7 0.215348 0.674224 0.163508
O O8 0.257108 0.445737 0.518867
O O9 0.245921 0.947705 0.582343
O O10 0.071667 0.171212 0.629844
O O11 0.845996 0.006660 0.624087
O O12 0.917095 0.705609 0.383262
O O13 0.024277 0.760750 0.811999
O O14 0.992106 0.453916 0.101240
O O15 0.102013 0.991850 0.238017
O O16 0.805450 0.194928 0.245228
#
# Coordination Sequence:
#
# PCOD9000001 Si02
#       8
#     1   1   1   1   1   1   1   1
#     4  11  25  45  67 100 135 182 224 282 339 390
#     4  12  26  45  72  97 139 187 225 273 344 397
#     4  10  22  46  64  93 135 175 225 274 324 408
#     4  10  21  39  67 102 131 177 216 286 344 399
#     4   9  21  39  66  96 131 170 220 273 340 392
#     4  10  21  41  65 101 136 166 224 283 332 405
#     4   9  21  43  63  93 132 168 225 277 328 397
#     4  11  25  42  70 106 139 173 233 278 337 418
#
# _framework density 23.052129000000001
#
# number of rings (size 3 to 8) (size 9 to 14) (size 15 to 20)
#    0.750    1.000    1.250    2.250    5.250    1.000 
#    2.250    1.250    0.000    0.000    0.000    0.000 
#    0.000    0.000    0.000    0.000    0.000    0.000 
#
# Total GULP energy -44625.898568 kJ/mol
# GULP energy per Si atom -5578.237321 kJ/mol
# Density = 2.299966 g / cm^3
# Si number density = 23.052129 Si / 1000 Ang^3
#
#
#
# Elastic Constant Matrix: (Units=GPa)
#
#
# Indices 1 2 3 4 5 6 
#
# 1 87.6057 27.5418 32.9445 9.0445 18.1621 24.3623
# 2 27.5418 137.7279 29.4888 4.7982 6.7242 8.9059
# 3 32.9445 29.4888 66.9554 5.7555 29.4138 17.1972
# 4 9.0445 4.7982 5.7555 30.1948 -0.9054 7.5879
# 5 18.1621 6.7242 29.4138 -0.9054 26.3680 5.8620
# 6 24.3623 8.9059 17.1972 7.5879 5.8620 39.2805
#
#
#
# Elastic Compliance Matrix: (Units=1/GPa)
#
#
# Indices 1 2 3 4 5 6 
#
# 1 0.016601 -0.001961 -0.002081 -0.002621 -0.007062 -0.007380
# 2 -0.001961 0.008440 -0.004974 0.000138 0.004581 0.000770
# 3 -0.002081 -0.004974 0.036455 -0.004832 -0.036539 -0.007155
# 4 -0.002621 0.000138 -0.004832 0.036269 0.009453 -0.004707
# 5 -0.007062 0.004581 -0.036539 0.009453 0.081517 0.005348
# 6 -0.007380 0.000770 -0.007155 -0.004707 0.005348 0.033104
#
#
# Mechanical properties :
#
#
# Convention : Reuss Voigt Hill
#
# Bulk Modulus (GPa) = 23.00801 52.47103 37.73952
# Shear Modulus (GPa) = 20.41594 32.65625 26.53609
#
# Velocity S-wave (km/s) = 2.97920 3.76789 3.39652
# Velocity P-wave (km/s) = 4.67298 6.46070 5.63815
#
# Compressibility (1/GPa) = 0.04346312
#
# Stress axis : x y z
#
# Youngs Moduli (GPa) = 60.23729 118.48944 27.43079
#
# Poissons Ratio (x) = 0.23233 0.05710
# Poissons Ratio (y) = 0.11811 0.13645
# Poissons Ratio (z) = 0.12538 0.58939
#
# Static dielectric constant tensor:
#      x y z
#    x 1.900180 -0.023560 -0.012530 
#    y -0.023560 1.875120 -0.018390 
#    z -0.012530 -0.018390 1.885770 
# 
# From -- ./inp_files/2623.got.cif
#   From: 2010.05.17/outbox.cif.g08.bks.cpg/sg1_2_cif.got.tgz:2623.got - 2010.05.17 20:27:59.
