data_PCOD9000790
_publ_section_title
;
Structure prediction by ZEFSAII (Michael W. Deem and Ramdas Pophale) SiO2 
 PCOD9000790
Probable space group: P 1
;
_chemical_formula_sum "Si O2"
_cell_formula_units_Z 6
_cell_length_a 6.287932
_cell_length_b 6.816980
_cell_length_c 6.391215
_cell_angle_alpha 103.364148
_cell_angle_beta 105.453075
_cell_angle_gamma 113.354640
_cell_volume 224.177173
_symmetry_space_group_name_H-M "P 1"
_symmetry_group_IT_number 1
_symmetry_cell_setting 'triclinic'
loop_
_space_group_symop_operation_xyz
x,y,z
loop_
_atom_site_type_symbol
_atom_site_label
_atom_site_fract_x
_atom_site_fract_y
_atom_site_fract_z
Si Si1 0.603550 0.050100 0.723120
Si Si2 0.622033 0.684680 0.352471
Si Si3 0.796758 0.509550 0.700778
Si Si4 0.138010 0.079204 0.400199
Si Si5 0.264540 0.002531 0.954169
Si Si6 0.331228 0.435323 0.833762
O O1 0.819023 0.293319 0.746422
O O2 0.359123 0.035355 0.541255
O O3 0.611268 0.830610 0.583548
O O4 0.536512 0.041781 0.949415
O O5 0.668535 0.490617 0.434323
O O6 0.397202 0.592854 0.100310
O O7 0.871172 0.872414 0.347122
O O8 0.616353 0.526850 0.835916
O O9 0.069234 0.732355 0.802455
O O10 0.180341 0.332334 0.546473
O O11 0.186221 0.057315 0.167100
O O12 0.227756 0.183933 0.849492
#
# Coordination Sequence:
#
# PCOD9000790 Si02
#       6
#     1   1   1   1   1   1
#     4  10  25  42  65 103 123 171 222 254 328 381
#     4  12  22  44  70  94 132 168 215 269 317 383
#     4  10  20  43  68  89 135 170 205 274 318 370
#     4  10  21  43  66  92 135 165 212 268 315 379
#     4  10  19  44  66  93 133 170 209 268 322 374
#     4  10  21  38  69  95 122 176 211 255 330 371
#
# _framework density 26.764544999999998
#
# number of rings (size 3 to 8) (size 9 to 14) (size 15 to 20)
#    0.000    2.000    5.000    2.000    0.000    1.333 
#   12.000    0.000    0.000    0.000    0.000    0.000 
#    0.000    0.000    0.000    0.000    0.000    0.000 
#
# Total GULP energy -33410.249836 kJ/mol
# GULP energy per Si atom -5568.374973 kJ/mol
# Density = 2.670363 g / cm^3
# Si number density = 26.764545 Si / 1000 Ang^3
#
#
#
# Elastic Constant Matrix: (Units=GPa)
#
#
# Indices 1 2 3 4 5 6 
#
# 1 37.3719 27.5520 18.4789 -14.9228 -17.0526 1.5614
# 2 27.5520 179.5825 40.5838 6.9354 -3.1742 25.1476
# 3 18.4789 40.5838 122.9968 -3.3071 -31.5573 10.3555
# 4 -14.9228 6.9354 -3.3071 48.4350 7.8058 3.5661
# 5 -17.0526 -3.1742 -31.5573 7.8058 51.9767 -3.0828
# 6 1.5614 25.1476 10.3555 3.5661 -3.0828 31.3241
#
#
#
# Elastic Compliance Matrix: (Units=1/GPa)
#
#
# Indices 1 2 3 4 5 6 
#
# 1 0.042121 -0.006968 -0.001161 0.011836 0.011126 0.003626
# 2 -0.006968 0.007863 -0.001911 -0.002543 -0.002900 -0.005329
# 3 -0.001161 -0.001911 0.010541 -0.000213 0.005858 -0.001292
# 4 0.011836 -0.002543 -0.000213 0.024772 -0.000200 -0.001317
# 5 0.011126 -0.002900 0.005858 -0.000200 0.026445 0.002463
# 6 0.003626 -0.005329 -0.001292 -0.001317 0.002463 0.036841
#
#
# Mechanical properties :
#
#
# Convention : Reuss Voigt Hill
#
# Bulk Modulus (GPa) = 24.72612 57.02006 40.87309
# Shear Modulus (GPa) = 27.45060 43.23626 35.34343
#
# Velocity S-wave (km/s) = 3.20602 4.02360 3.63785
# Velocity P-wave (km/s) = 4.79200 6.55259 5.74019
#
# Compressibility (1/GPa) = 0.04044307
#
# Stress axis : x y z
#
# Youngs Moduli (GPa) = 23.74133 127.18346 94.86374
#
# Poissons Ratio (x) = 0.88621 0.11018
# Poissons Ratio (y) = 0.16543 0.18132
# Poissons Ratio (z) = 0.02758 0.24310
#
# Static dielectric constant tensor:
#      x y z
#    x 2.284890 -0.019940 -0.157580 
#    y -0.019940 2.219970 -0.123670 
#    z -0.157580 -0.123670 2.504000 
# 
# From -- ./inp_files/1250.got.cif
#   From: 2010.05.17/outbox.cif.g08.bks.cpg/sg1_1_cif.got.tgz:1250.got - 2010.05.17 20:27:59.
