data_PCOD9000289
_publ_section_title
;
Structure prediction by ZEFSAII (Michael W. Deem and Ramdas Pophale) SiO2 
 PCOD9000289
Probable space group: P 1
;
_chemical_formula_sum "Si O2"
_cell_formula_units_Z 8
_cell_length_a 5.247981
_cell_length_b 11.689601
_cell_length_c 8.890272
_cell_angle_alpha 40.125808
_cell_angle_beta 108.030027
_cell_angle_gamma 119.547953
_cell_volume 303.544722
_symmetry_space_group_name_H-M "P 1"
_symmetry_group_IT_number 1
_symmetry_cell_setting 'triclinic'
loop_
_space_group_symop_operation_xyz
x,y,z
loop_
_atom_site_type_symbol
_atom_site_label
_atom_site_fract_x
_atom_site_fract_y
_atom_site_fract_z
Si Si1 0.021180 0.604420 0.054910
Si Si2 0.996121 0.706831 0.287737
Si Si3 0.517024 0.615034 0.552896
Si Si4 0.759027 0.163082 0.711771
Si Si5 0.572541 0.289362 0.090840
Si Si6 0.252549 0.995309 0.560482
Si Si7 0.604623 0.014747 0.157330
Si Si8 0.297068 0.324518 0.443934
O O1 0.974222 0.691706 0.117021
O O2 0.746437 0.408805 0.148030
O O3 0.276692 0.524041 0.189798
O O4 0.067371 0.766416 0.774927
O O5 0.085851 0.254155 0.618766
O O6 0.717319 0.644731 0.410104
O O7 0.248560 0.925392 0.153156
O O8 0.187222 0.585733 0.485000
O O9 0.647588 0.835696 0.422330
O O10 0.495644 0.441630 0.830032
O O11 0.544435 0.021122 0.687236
O O12 0.607271 0.316017 0.544039
O O13 0.728562 0.056539 0.970016
O O14 0.335897 0.087651 0.319213
O O15 0.737239 0.209968 0.081663
O O16 0.153574 0.147170 0.476115
#
# Coordination Sequence:
#
# PCOD9000289 Si02
#       8
#     1   1   1   1   1   1   1   1
#     4  12  25  49  82 115 152 207 260 329 380 463
#     4  10  25  51  80 106 152 207 265 313 380 458
#     4  10  27  51  76 114 155 209 255 321 387 466
#     4  10  22  48  73 109 144 201 257 314 364 456
#     4  12  28  49  77 119 162 204 254 319 404 464
#     4  10  25  48  72 113 156 199 256 313 385 458
#     4  10  26  49  77 113 158 204 255 327 383 468
#     4  10  24  45  73 113 147 193 258 314 377 443
#
# _framework density 26.355262
#
# number of rings (size 3 to 8) (size 9 to 14) (size 15 to 20)
#    1.500    0.000    2.500    0.000    8.750    4.000 
#    6.750    0.000    0.000    0.000    0.000    0.000 
#    0.000    0.000    0.000    0.000    0.000    0.000 
#
# Total GULP energy -44722.195607 kJ/mol
# GULP energy per Si atom -5590.274451 kJ/mol
# Density = 2.629528 g / cm^3
# Si number density = 26.355262 Si / 1000 Ang^3
#
#
#
# Elastic Constant Matrix: (Units=GPa)
#
#
# Indices 1 2 3 4 5 6 
#
# 1 147.3865 16.5957 51.8665 9.5167 -0.8251 -2.8215
# 2 16.5957 96.4007 20.5493 -4.1804 7.3543 -4.3933
# 3 51.8665 20.5493 213.5497 7.2287 8.7140 -4.7224
# 4 9.5167 -4.1804 7.2287 36.5550 -1.1839 0.7444
# 5 -0.8251 7.3543 8.7140 -1.1839 37.8408 -1.4825
# 6 -2.8215 -4.3933 -4.7224 0.7444 -1.4825 27.7454
#
#
#
# Elastic Compliance Matrix: (Units=1/GPa)
#
#
# Indices 1 2 3 4 5 6 
#
# 1 0.007632 -0.001062 -0.001713 -0.001754 0.000728 0.000402
# 2 -0.001062 0.010990 -0.000747 0.001592 -0.001884 0.001362
# 3 -0.001713 -0.000747 0.005253 -0.000725 -0.001103 0.000562
# 4 -0.001754 0.001592 -0.000725 0.028176 0.000671 -0.000770
# 5 0.000728 -0.001884 -0.001103 0.000671 0.027123 0.001019
# 6 0.000402 0.001362 0.000562 -0.000770 0.001019 0.036469
#
#
# Mechanical properties :
#
#
# Convention : Reuss Voigt Hill
#
# Bulk Modulus (GPa) = 59.41054 70.59553 65.00303
# Shear Modulus (GPa) = 38.97201 44.98327 41.97764
#
# Velocity S-wave (km/s) = 3.84958 4.13583 3.99527
# Velocity P-wave (km/s) = 6.50770 7.04635 6.78238
#
# Compressibility (1/GPa) = 0.01683203
#
# Stress axis : x y z
#
# Youngs Moduli (GPa) = 131.02155 90.99040 190.38211
#
# Poissons Ratio (x) = 0.09664 0.32612
# Poissons Ratio (y) = 0.13915 0.14212
# Poissons Ratio (z) = 0.22443 0.06792
#
# Static dielectric constant tensor:
#      x y z
#    x 2.085400 0.056990 -0.009810 
#    y 0.056990 2.175380 -0.053510 
#    z -0.009810 -0.053510 2.022800 
# 
# From -- ./inp_files/4789.got.cif
#   From: 2010.05.17/outbox.cif.g08.bks.cpg/sg1_3_cif.got.tgz:4789.got - 2010.05.17 20:27:59.
