data_PCOD9000865
_publ_section_title
;
Structure prediction by ZEFSAII (Michael W. Deem and Ramdas Pophale) SiO2 
 PCOD9000865
Probable space group: P 1
;
_chemical_formula_sum "Si O2"
_cell_formula_units_Z 8
_cell_length_a 13.675994
_cell_length_b 9.446160
_cell_length_c 7.833631
_cell_angle_alpha 46.262456
_cell_angle_beta 38.300879
_cell_angle_gamma 31.077703
_cell_volume 323.187769
_symmetry_space_group_name_H-M "P 1"
_symmetry_group_IT_number 1
_symmetry_cell_setting 'triclinic'
loop_
_space_group_symop_operation_xyz
x,y,z
loop_
_atom_site_type_symbol
_atom_site_label
_atom_site_fract_x
_atom_site_fract_y
_atom_site_fract_z
Si Si1 0.945940 0.212420 0.462360
Si Si2 0.684361 0.837345 0.795068
Si Si3 0.340458 0.621689 0.356694
Si Si4 0.192335 0.313661 0.206595
Si Si5 0.559815 0.745408 0.731793
Si Si6 0.263600 0.936928 0.689704
Si Si7 0.106035 0.704525 0.284055
Si Si8 0.665998 0.435786 0.330484
O O1 0.732168 0.431386 0.692205
O O2 0.851309 0.241956 0.381296
O O3 0.052915 0.340833 0.218297
O O4 0.116907 0.886185 0.541643
O O5 0.732440 0.581803 0.024527
O O6 0.446362 0.100552 0.977208
O O7 0.671408 0.818446 0.624349
O O8 0.878098 0.820828 0.574990
O O9 0.277413 0.546748 0.341023
O O10 0.552497 0.394276 0.375816
O O11 0.404435 0.773074 0.056872
O O12 0.153270 0.536091 0.190157
O O13 0.145472 0.180871 0.517877
O O14 0.407808 0.939729 0.621789
O O15 0.449240 0.664372 0.553312
O O16 0.116586 0.913809 0.015847
#
# Coordination Sequence:
#
# PCOD9000865 Si02
#       8
#     1   1   1   1   1   1   1   1
#     4  11  19  38  72  89 127 185 211 262 340 376
#     4  10  20  40  63  99 132 164 227 271 316 402
#     4  10  21  42  60  97 135 165 220 278 315 398
#     4  11  22  43  68  94 133 181 210 271 339 382
#     4   9  18  36  65  94 129 169 221 263 319 406
#     4   9  20  41  65  91 135 172 215 272 327 389
#     4  11  24  40  67 100 133 167 221 279 324 389
#     4   9  20  40  68  96 126 179 221 262 328 402
#
# _framework density 24.753409999999999
#
# number of rings (size 3 to 8) (size 9 to 14) (size 15 to 20)
#    0.000    2.000    5.000    0.000    0.000    5.000 
#    2.250    2.500    5.500    0.000    0.000    0.000 
#    0.000    0.000    0.000    0.000    0.000    0.000 
#
# Total GULP energy -44623.568401 kJ/mol
# GULP energy per Si atom -5577.946050 kJ/mol
# Density = 2.469707 g / cm^3
# Si number density = 24.753410 Si / 1000 Ang^3
#
#
#
# Elastic Constant Matrix: (Units=GPa)
#
#
# Indices 1 2 3 4 5 6 
#
# 1 204.3690 45.0507 36.9651 -0.8950 -16.5370 -19.8288
# 2 45.0507 57.2924 16.8236 8.2367 -4.3491 0.4824
# 3 36.9651 16.8236 107.3373 11.4958 -9.0529 2.6119
# 4 -0.8950 8.2367 11.4958 22.7641 2.8253 6.8431
# 5 -16.5370 -4.3491 -9.0529 2.8253 36.5345 8.7196
# 6 -19.8288 0.4824 2.6119 6.8431 8.7196 52.4931
#
#
#
# Elastic Compliance Matrix: (Units=1/GPa)
#
#
# Indices 1 2 3 4 5 6 
#
# 1 0.006601 -0.004918 -0.001665 0.002075 0.001321 0.002132
# 2 -0.004918 0.022805 -0.000924 -0.007760 0.001146 -0.001200
# 3 -0.001665 -0.000924 0.010822 -0.005233 0.002433 -0.000881
# 4 0.002075 -0.007760 -0.005233 0.051445 -0.004087 -0.004912
# 5 0.001321 0.001146 0.002433 -0.004087 0.029999 -0.004083
# 6 0.002132 -0.001200 -0.000881 -0.004912 -0.004083 0.021229
#
#
# Mechanical properties :
#
#
# Convention : Reuss Voigt Hill
#
# Bulk Modulus (GPa) = 39.65961 62.96418 51.31190
# Shear Modulus (GPa) = 30.06264 40.36896 35.21580
#
# Velocity S-wave (km/s) = 3.48873 4.04275 3.77591
# Velocity P-wave (km/s) = 5.68198 6.87631 6.30748
#
# Compressibility (1/GPa) = 0.02521457
#
# Stress axis : x y z
#
# Youngs Moduli (GPa) = 151.48895 43.84948 92.40594
#
# Poissons Ratio (x) = 0.21564 0.15388
# Poissons Ratio (y) = 0.74498 0.08537
# Poissons Ratio (z) = 0.25227 0.04051
#
# Static dielectric constant tensor:
#      x y z
#    x 2.057390 -0.011990 -0.016270 
#    y -0.011990 2.055040 0.029380 
#    z -0.016270 0.029380 1.905310 
# 
# From -- ./inp_files/5746.got.cif
#   From: 2010.05.17/outbox.cif.g08.bks.cpg/sg1_3_cif.got.tgz:5746.got - 2010.05.17 20:27:59.
