data_PCOD9000848
_publ_section_title
;
Structure prediction by ZEFSAII (Michael W. Deem and Ramdas Pophale) SiO2 
 PCOD9000848
Probable space group: P 1
;
_chemical_formula_sum "Si O2"
_cell_formula_units_Z 8
_cell_length_a 9.235340
_cell_length_b 7.005356
_cell_length_c 7.611131
_cell_angle_alpha 99.410296
_cell_angle_beta 130.844069
_cell_angle_gamma 104.480820
_cell_volume 322.726685
_symmetry_space_group_name_H-M "P 1"
_symmetry_group_IT_number 1
_symmetry_cell_setting 'triclinic'
loop_
_space_group_symop_operation_xyz
x,y,z
loop_
_atom_site_type_symbol
_atom_site_label
_atom_site_fract_x
_atom_site_fract_y
_atom_site_fract_z
Si Si1 0.219130 0.204640 0.995310
Si Si2 0.464016 0.168087 0.842766
Si Si3 0.037839 0.997292 0.360987
Si Si4 0.515007 0.098277 0.404624
Si Si5 0.591546 0.643549 0.899685
Si Si6 0.870645 0.300809 0.416856
Si Si7 0.274282 0.650633 0.936389
Si Si8 0.799469 0.979275 0.829873
O O1 0.333591 0.139577 0.919395
O O2 0.250520 0.443737 0.003349
O O3 0.966882 0.025562 0.808633
O O4 0.371840 0.220161 0.284854
O O5 0.493143 0.386561 0.801079
O O6 0.260435 0.985416 0.542956
O O7 0.702955 0.225102 0.108418
O O8 0.009399 0.170655 0.488689
O O9 0.832880 0.759152 0.192256
O O10 0.977240 0.069031 0.139216
O O11 0.644694 0.086075 0.677592
O O12 0.714447 0.217428 0.446403
O O13 0.357190 0.853208 0.166371
O O14 0.450004 0.711352 0.926796
O O15 0.633994 0.743515 0.751803
O O16 0.044203 0.552828 0.636350
#
# Coordination Sequence:
#
# PCOD9000848 Si02
#       8
#     1   1   1   1   1   1   1   1
#     4  10  22  41  64  92 124 163 210 257 307 373
#     4  10  21  39  65  90 118 161 219 250 304 373
#     4  10  20  39  63  85 128 160 197 263 308 356
#     4  11  22  42  65  94 126 168 207 256 317 371
#     4   9  21  39  61  89 122 167 200 256 313 362
#     4  11  21  40  65  96 119 162 217 260 304 371
#     4  11  21  43  68  91 127 165 214 261 306 369
#     4  10  22  41  61  89 136 160 198 261 317 369
#
# _framework density 24.788777
#
# number of rings (size 3 to 8) (size 9 to 14) (size 15 to 20)
#    0.750    1.000    5.000    0.000    0.000    4.000 
#    6.750    0.000    0.000    0.000    0.000    0.000 
#    0.000    0.000    0.000    0.000    0.000    0.000 
#
# Total GULP energy -44548.591853 kJ/mol
# GULP energy per Si atom -5568.573982 kJ/mol
# Density = 2.473236 g / cm^3
# Si number density = 24.788777 Si / 1000 Ang^3
#
#
#
# Elastic Constant Matrix: (Units=GPa)
#
#
# Indices 1 2 3 4 5 6 
#
# 1 64.7878 28.0533 26.9032 2.3483 26.1996 21.1972
# 2 28.0533 105.4005 30.3607 -5.5796 3.1884 28.6299
# 3 26.9032 30.3607 184.8680 -5.5530 30.3787 14.5933
# 4 2.3483 -5.5796 -5.5530 51.4805 -2.3681 -1.1371
# 5 26.1996 3.1884 30.3787 -2.3681 44.5397 4.5362
# 6 21.1972 28.6299 14.5933 -1.1371 4.5362 27.6764
#
#
#
# Elastic Compliance Matrix: (Units=1/GPa)
#
#
# Indices 1 2 3 4 5 6 
#
# 1 0.028021 -0.002711 0.000006 -0.002612 -0.014767 -0.016347
# 2 -0.002711 0.013822 -0.001357 0.001342 0.002816 -0.011912
# 3 0.000006 -0.001357 0.006423 0.000327 -0.004138 -0.001296
# 4 -0.002612 0.001342 0.000327 0.019845 0.002181 0.000898
# 5 -0.014767 0.002816 -0.004138 0.002181 0.033345 0.005203
# 6 -0.016347 -0.011912 -0.001296 0.000898 0.005203 0.060842
#
#
# Mechanical properties :
#
#
# Convention : Reuss Voigt Hill
#
# Bulk Modulus (GPa) = 24.91215 58.41008 41.66111
# Shear Modulus (GPa) = 27.20304 42.72192 34.96248
#
# Velocity S-wave (km/s) = 3.31629 4.15593 3.75962
# Velocity P-wave (km/s) = 4.97346 6.82959 5.97405
#
# Compressibility (1/GPa) = 0.04014106
#
# Stress axis : x y z
#
# Youngs Moduli (GPa) = 35.68755 72.34978 155.68016
#
# Poissons Ratio (x) = 0.19614 -0.00093
# Poissons Ratio (y) = 0.09675 0.21133
# Poissons Ratio (z) = -0.00021 0.09821
#
# Static dielectric constant tensor:
#      x y z
#    x 2.068010 0.025200 -0.052720 
#    y 0.025200 1.970380 -0.062950 
#    z -0.052720 -0.062950 2.068680 
# 
# From -- ./inp_files/5284.got.cif
#   From: 2010.05.17/outbox.cif.g08.bks.cpg/sg1_3_cif.got.tgz:5284.got - 2010.05.17 20:27:59.
