data_PCOD9000814
_publ_section_title
;
Structure prediction by ZEFSAII (Michael W. Deem and Ramdas Pophale) SiO2 
 PCOD9000814
Probable space group: P 1
;
_chemical_formula_sum "Si O2"
_cell_formula_units_Z 8
_cell_length_a 6.934553
_cell_length_b 9.316203
_cell_length_c 7.064614
_cell_angle_alpha 71.813260
_cell_angle_beta 109.957405
_cell_angle_gamma 73.169883
_cell_volume 365.281065
_symmetry_space_group_name_H-M "P 1"
_symmetry_group_IT_number 1
_symmetry_cell_setting 'triclinic'
loop_
_space_group_symop_operation_xyz
x,y,z
loop_
_atom_site_type_symbol
_atom_site_label
_atom_site_fract_x
_atom_site_fract_y
_atom_site_fract_z
Si Si1 0.162500 0.065520 0.655530
Si Si2 0.409691 0.632489 0.405438
Si Si3 0.319903 0.430530 0.791378
Si Si4 0.895716 0.438507 0.447635
Si Si5 0.751266 0.737858 0.022187
Si Si6 0.538578 0.049595 0.074508
Si Si7 0.259232 0.726797 0.921356
Si Si8 0.529882 0.904765 0.530234
O O1 0.344157 0.033703 0.560238
O O2 0.958599 0.249272 0.486044
O O3 0.302016 0.060763 0.897752
O O4 0.096315 0.911269 0.708405
O O5 0.373573 0.512014 0.591019
O O6 0.230381 0.709629 0.142266
O O7 0.429181 0.782155 0.463526
O O8 0.080329 0.428308 0.668740
O O9 0.510256 0.238467 0.963483
O O10 0.282385 0.560801 0.893318
O O11 0.911931 0.555861 0.235384
O O12 0.649023 0.527815 0.422276
O O13 0.503934 0.731719 0.962642
O O14 0.748072 0.789474 0.781593
O O15 0.729039 0.892916 0.084967
O O16 0.566725 0.996423 0.323646
#
# Coordination Sequence:
#
# PCOD9000814 Si02
#       8
#     1   1   1   1   1   1   1   1
#     4   9  18  35  60  89 119 156 197 242 296 358
#     4  11  20  41  65  82 122 168 190 239 308 349
#     4  11  22  38  63  94 118 151 204 252 289 349
#     4  10  22  40  60  92 126 146 202 254 288 352
#     4   9  18  37  60  85 121 161 194 241 295 362
#     4   9  18  35  60  88 119 155 200 241 294 357
#     4   9  18  36  62  87 119 157 201 240 292 358
#     4  10  16  36  68  79 114 174 190 225 314 349
#
# _framework density 21.900942000000001
#
# number of rings (size 3 to 8) (size 9 to 14) (size 15 to 20)
#    0.000    2.500    6.250    0.000    0.000    3.000 
#    6.750    3.750    5.500    0.000    0.000    0.000 
#    0.000    0.000    0.000    0.000    0.000    0.000 
#
# Total GULP energy -44630.579625 kJ/mol
# GULP energy per Si atom -5578.822453 kJ/mol
# Density = 2.185109 g / cm^3
# Si number density = 21.900942 Si / 1000 Ang^3
#
#
#
# Elastic Constant Matrix: (Units=GPa)
#
#
# Indices 1 2 3 4 5 6 
#
# 1 33.2456 6.4009 14.5938 -0.9165 -7.6831 -3.5644
# 2 6.4009 121.9510 67.8490 -17.6915 -7.4585 5.3797
# 3 14.5938 67.8490 157.1845 -4.1319 -28.4420 -8.2355
# 4 -0.9165 -17.6915 -4.1319 43.9381 -3.0420 -8.5072
# 5 -7.6831 -7.4585 -28.4420 -3.0420 29.1752 -1.5850
# 6 -3.5644 5.3797 -8.2355 -8.5072 -1.5850 16.4057
#
#
#
# Elastic Compliance Matrix: (Units=1/GPa)
#
#
# Indices 1 2 3 4 5 6 
#
# 1 0.033666 -0.000960 -0.000517 0.002756 0.008928 0.009661
# 2 -0.000960 0.012010 -0.005848 0.002935 -0.002894 -0.005840
# 3 -0.000517 -0.005848 0.011229 0.001116 0.009920 0.008979
# 4 0.002756 0.002935 0.001116 0.027446 0.006242 0.015032
# 5 0.008928 -0.002894 0.009920 0.006242 0.047058 0.015652
# 6 0.009661 -0.005840 0.008979 0.015032 0.015652 0.078783
#
#
# Mechanical properties :
#
#
# Convention : Reuss Voigt Hill
#
# Bulk Modulus (GPa) = 23.66529 54.45204 39.05866
# Shear Modulus (GPa) = 20.92693 32.80631 26.86662
#
# Velocity S-wave (km/s) = 3.09451 3.87452 3.50628
# Velocity P-wave (km/s) = 4.85768 6.70319 5.85362
#
# Compressibility (1/GPa) = 0.04225599
#
# Stress axis : x y z
#
# Youngs Moduli (GPa) = 29.70341 83.26277 89.05643
#
# Poissons Ratio (x) = 0.07989 0.04608
# Poissons Ratio (y) = 0.02850 0.52077
# Poissons Ratio (z) = 0.01537 0.48689
#
# Static dielectric constant tensor:
#      x y z
#    x 1.876140 0.008440 0.048480 
#    y 0.008440 1.796090 -0.014310 
#    z 0.048480 -0.014310 1.873370 
# 
# From -- ./inp_files/3793.got.cif
#   From: 2010.05.17/outbox.cif.g08.bks.cpg/sg1_2_cif.got.tgz:3793.got - 2010.05.17 20:27:59.
