data_PCOD9000538
_publ_section_title
;
Structure prediction by ZEFSAII (Michael W. Deem and Ramdas Pophale) SiO2 
 PCOD9000538
Probable space group: P 1
;
_chemical_formula_sum "Si O2"
_cell_formula_units_Z 8
_cell_length_a 6.442750
_cell_length_b 11.439409
_cell_length_c 12.191788
_cell_angle_alpha 36.465458
_cell_angle_beta 139.235731
_cell_angle_gamma 121.642265
_cell_volume 340.335358
_symmetry_space_group_name_H-M "P 1"
_symmetry_group_IT_number 1
_symmetry_cell_setting 'triclinic'
loop_
_space_group_symop_operation_xyz
x,y,z
loop_
_atom_site_type_symbol
_atom_site_label
_atom_site_fract_x
_atom_site_fract_y
_atom_site_fract_z
Si Si1 0.758410 0.376470 0.040750
Si Si2 0.359863 0.889273 0.785307
Si Si3 0.818632 0.671929 0.648348
Si Si4 0.425395 0.084609 0.456605
Si Si5 0.202782 0.908900 0.283133
Si Si6 0.966341 0.297226 0.422803
Si Si7 0.025113 0.332690 0.804975
Si Si8 0.852205 0.568267 0.358228
O O1 0.843747 0.412186 0.174298
O O2 0.063886 0.205306 0.252576
O O3 0.754681 0.559364 0.819378
O O4 0.408910 0.315531 0.943807
O O5 0.074419 0.807305 0.673268
O O6 0.562801 0.954738 0.716285
O O7 0.547014 0.704695 0.072027
O O8 0.212083 0.088877 0.646302
O O9 0.478884 0.820640 0.371105
O O10 0.940821 0.500474 0.738345
O O11 0.652731 0.233702 0.399577
O O12 0.379486 0.958466 0.426171
O O13 0.012194 0.733911 0.356369
O O14 0.987490 0.117674 0.996187
O O15 0.074975 0.440406 0.448682
O O16 0.809805 0.411725 0.553136
#
# Coordination Sequence:
#
# PCOD9000538 Si02
#       8
#     1   1   1   1   1   1   1   1
#     4  11  21  45  78 102 143 186 245 302 347 421
#     4  11  26  44  75 107 144 194 240 294 364 428
#     4  12  24  47  76 107 137 198 250 294 351 431
#     4  11  22  47  79 101 141 189 250 297 346 426
#     4  12  25  47  75 106 139 195 243 297 355 421
#     4  11  25  47  70 109 147 187 242 302 354 429
#     4  12  26  48  70 107 154 184 243 298 358 433
#     4  12  29  45  69 111 153 189 229 298 375 427
#
# _framework density 23.506226000000002
#
# number of rings (size 3 to 8) (size 9 to 14) (size 15 to 20)
#    0.000    0.500    5.000    3.000    3.500    3.000 
#    4.500    0.000    0.000    0.000    0.000    0.000 
#    0.000    0.000    0.000    0.000    0.000    0.000 
#
# Total GULP energy -44788.778009 kJ/mol
# GULP energy per Si atom -5598.597251 kJ/mol
# Density = 2.345272 g / cm^3
# Si number density = 23.506226 Si / 1000 Ang^3
#
#
#
# Elastic Constant Matrix: (Units=GPa)
#
#
# Indices 1 2 3 4 5 6 
#
# 1 90.4091 18.1492 30.2969 -7.8876 -12.5816 -14.6227
# 2 18.1492 90.8343 26.2183 -24.4615 -9.3155 -16.3457
# 3 30.2969 26.2183 128.0251 -17.1792 -15.2996 -30.2436
# 4 -7.8876 -24.4615 -17.1792 32.8909 -4.9329 4.7723
# 5 -12.5816 -9.3155 -15.2996 -4.9329 40.5706 3.1439
# 6 -14.6227 -16.3457 -30.2436 4.7723 3.1439 26.0554
#
#
#
# Elastic Compliance Matrix: (Units=1/GPa)
#
#
# Indices 1 2 3 4 5 6 
#
# 1 0.012969 -0.000531 -0.001164 0.001901 0.003317 0.004845
# 2 -0.000531 0.015932 0.000882 0.011713 0.004629 0.008016
# 3 -0.001164 0.000882 0.012062 0.005492 0.004097 0.012400
# 4 0.001901 0.011713 0.005492 0.043141 0.010157 0.005662
# 5 0.003317 0.004629 0.004097 0.010157 0.029199 0.004137
# 6 0.004845 0.008016 0.012400 0.005662 0.004137 0.058985
#
#
# Mechanical properties :
#
#
# Convention : Reuss Voigt Hill
#
# Bulk Modulus (GPa) = 25.42252 50.95526 38.18889
# Shear Modulus (GPa) = 26.73416 35.54366 31.13891
#
# Velocity S-wave (km/s) = 3.37608 3.89279 3.64360
# Velocity P-wave (km/s) = 5.10254 6.47529 5.82947
#
# Compressibility (1/GPa) = 0.03933520
#
# Stress axis : x y z
#
# Youngs Moduli (GPa) = 77.10896 62.76537 82.90706
#
# Poissons Ratio (x) = 0.03334 0.09652
# Poissons Ratio (y) = 0.04095 -0.07309
# Poissons Ratio (z) = 0.08977 -0.05533
#
# Static dielectric constant tensor:
#      x y z
#    x 1.899270 -0.001210 0.013010 
#    y -0.001210 1.862270 0.005510 
#    z 0.013010 0.005510 1.914200 
# 
# From -- ./inp_files/2426.got.cif
#   From: 2010.05.17/outbox.cif.g08.bks.cpg/sg1_2_cif.got.tgz:2426.got - 2010.05.17 20:27:59.
