data_PCOD9000990
_publ_section_title
;
Structure prediction by ZEFSAII (Michael W. Deem and Ramdas Pophale) SiO2 
 PCOD9000990
Probable space group: P -1
;
_chemical_formula_sum "Si O2"
_cell_formula_units_Z 14
_cell_length_a 9.982422
_cell_length_b 11.409978
_cell_length_c 11.752389
_cell_angle_alpha 112.123785
_cell_angle_beta 126.976331
_cell_angle_gamma 36.138027
_cell_volume 613.487883
_symmetry_space_group_name_H-M "P -1"
_symmetry_group_IT_number 2
_symmetry_cell_setting 'triclinic'
loop_
_space_group_symop_operation_xyz
x,y,z
-x,-y,-z
loop_
_atom_site_type_symbol
_atom_site_label
_atom_site_fract_x
_atom_site_fract_y
_atom_site_fract_z
Si Si1 0.142593 0.957813 0.844732
Si Si2 0.088592 0.585308 0.620285
Si Si3 0.388918 0.846861 0.590816
Si Si4 0.414335 0.239560 0.815053
Si Si5 0.304749 0.074684 0.825971
Si Si6 0.333332 0.950669 0.360134
Si Si7 0.747849 0.287259 0.384454
O O1 0.305070 0.763996 0.775352
O O2 0.091634 0.108988 0.791749
O O3 0.330067 0.883890 0.018961
O O4 0.870325 0.045843 0.768047
O O5 0.845206 0.822210 0.616012
O O6 0.000000 0.500000 0.500000
O O7 0.263573 0.453926 0.774368
O O8 0.257537 0.565243 0.604994
O O9 0.491646 0.818358 0.507761
O O10 0.415033 0.687435 0.589981
O O11 0.467930 0.894276 0.750468
O O12 0.065163 0.070884 0.496072
O O13 0.222342 0.251981 0.785304
O O14 0.511964 0.119605 0.703134
O O15 0.500000 0.000000 0.000000
#
# Coordination Sequence:
#
# PCOD9000990 Si02
#       7
#     2   2   2   2   2   2   2
#     4   8  17  34  54  76 103 139 176 207 254 313
#     4  10  21  33  49  77 108 137 172 212 262 309
#     4   8  14  29  49  68  98 133 167 208 249 294
#     4  11  20  33  55  80 107 135 168 217 264 302
#     4   9  17  29  51  76  99 137 177 206 252 311
#     4  10  21  34  54  80 104 136 174 214 258 306
#     4   8  15  29  50  72  96 134 173 203 246 306
#
# _framework density 22.820336999999999
#
# number of rings (size 3 to 8) (size 9 to 14) (size 15 to 20)
#    0.000    3.143    0.000    3.000    0.000    4.571 
#    0.000    0.714    0.000   14.571    0.000    0.000 
#    0.000    0.000    0.000    0.000    0.000    0.000 
#
# Total GULP energy -78056.258443 kJ/mol
# GULP energy per Si atom -5575.447032 kJ/mol
# Density = 2.276840 g / cm^3
# Si number density = 22.820337 Si / 1000 Ang^3
#
#
#
# Elastic Constant Matrix: (Units=GPa)
#
#
# Indices 1 2 3 4 5 6 
#
# 1 159.0472 34.7668 46.4015 -8.8119 -25.2799 50.5443
# 2 34.7668 79.0515 27.3907 7.7913 -15.8226 18.6107
# 3 46.4015 27.3907 127.9116 23.1196 -22.7141 9.0364
# 4 -8.8119 7.7913 23.1196 24.9859 7.9723 -6.2615
# 5 -25.2799 -15.8226 -22.7141 7.9723 38.4095 -0.7014
# 6 50.5443 18.6107 9.0364 -6.2615 -0.7014 40.8409
#
#
#
# Elastic Compliance Matrix: (Units=1/GPa)
#
#
# Indices 1 2 3 4 5 6 
#
# 1 0.012994 -0.000058 -0.002740 0.001314 0.006358 -0.015137
# 2 -0.000058 0.017986 0.000924 -0.012280 0.010283 -0.010035
# 3 -0.002740 0.000924 0.013991 -0.018267 0.010592 -0.002744
# 4 0.001314 -0.012280 -0.018267 0.075690 -0.030358 0.019095
# 5 0.006358 0.010283 0.010592 -0.030358 0.046679 -0.018751
# 6 -0.015137 -0.010035 -0.002744 0.019095 -0.018751 0.051004
#
#
# Mechanical properties :
#
#
# Convention : Reuss Voigt Hill
#
# Bulk Modulus (GPa) = 24.25894 64.79203 44.52549
# Shear Modulus (GPa) = 21.20150 38.01069 29.60609
#
# Velocity S-wave (km/s) = 3.05136 4.08566 3.60579
# Velocity P-wave (km/s) = 4.80290 7.12115 6.07366
#
# Compressibility (1/GPa) = 0.04122191
#
# Stress axis : x y z
#
# Youngs Moduli (GPa) = 76.96124 55.59776 71.47647
#
# Poissons Ratio (x) = 0.00324 0.19585
# Poissons Ratio (y) = 0.00449 -0.06605
# Poissons Ratio (z) = 0.21088 -0.05138
#
# Static dielectric constant tensor:
#      x y z
#    x 1.923220 0.016850 0.009400 
#    y 0.016850 1.892750 -0.005390 
#    z 0.009400 -0.005390 1.879250 
# 
# From -- ./inp_files/353560.got.cif
#   From: 2010.05.17/outbox.cif.g08.bks.cpg/sg2_177_cif.got.tgz:353560.got - 2010.06.03 11:33:40.
