data_PCOD9000972
_publ_section_title
;
Structure prediction by ZEFSAII (Michael W. Deem and Ramdas Pophale) SiO2 
 PCOD9000972
Probable space group: P 1
;
_chemical_formula_sum "Si O2"
_cell_formula_units_Z 8
_cell_length_a 6.852835
_cell_length_b 9.703022
_cell_length_c 16.741690
_cell_angle_alpha 152.754304
_cell_angle_beta 134.382810
_cell_angle_gamma 47.396272
_cell_volume 359.029446
_symmetry_space_group_name_H-M "P 1"
_symmetry_group_IT_number 1
_symmetry_cell_setting 'triclinic'
loop_
_space_group_symop_operation_xyz
x,y,z
loop_
_atom_site_type_symbol
_atom_site_label
_atom_site_fract_x
_atom_site_fract_y
_atom_site_fract_z
Si Si1 0.657800 0.742080 0.947890
Si Si2 0.532240 0.414098 0.579259
Si Si3 0.124354 0.195321 0.085149
Si Si4 0.814723 0.835898 0.278586
Si Si5 0.193250 0.827641 0.063918
Si Si6 0.671675 0.818629 0.687739
Si Si7 0.382209 0.303900 0.734929
Si Si8 0.064069 0.227164 0.442050
O O1 0.580572 0.597265 0.766966
O O2 0.632539 0.479019 0.869749
O O3 0.957713 0.821761 0.058135
O O4 0.416348 0.027810 0.045848
O O5 0.515394 0.654975 0.626421
O O6 0.262521 0.259976 0.441569
O O7 0.852698 0.542952 0.549368
O O8 0.768586 0.128853 0.475483
O O9 0.035402 0.549056 0.221117
O O10 0.148072 0.132755 0.154610
O O11 0.883017 0.021202 0.891787
O O12 0.508640 0.748790 0.142637
O O13 0.892585 0.960496 0.278502
O O14 0.174454 0.563341 0.856165
O O15 0.476415 0.030200 0.680383
O O16 0.257872 0.211427 0.568817
#
# Coordination Sequence:
#
# PCOD9000972 Si02
#       8
#     1   1   1   1   1   1   1   1
#     4  10  21  42  68  91 129 167 217 259 309 377
#     4  10  21  41  66  92 126 169 206 263 314 376
#     4  11  22  41  66  95 127 167 212 268 309 373
#     4  11  25  39  64  96 136 164 202 266 331 366
#     4  11  21  40  62  97 130 165 210 265 313 375
#     4  11  19  39  68  94 120 168 214 259 314 371
#     4  10  21  38  67  96 121 169 216 261 305 381
#     4  10  22  44  61  93 135 165 207 265 317 375
#
# _framework density 22.282294
#
# number of rings (size 3 to 8) (size 9 to 14) (size 15 to 20)
#    0.000    1.500    6.250    0.750    0.000    6.000 
#    2.250    2.500    0.000    0.000    0.000    0.000 
#    0.000    0.000    0.000    0.000    0.000    0.000 
#
# Total GULP energy -44709.702720 kJ/mol
# GULP energy per Si atom -5588.712840 kJ/mol
# Density = 2.223158 g / cm^3
# Si number density = 22.282294 Si / 1000 Ang^3
#
#
#
# Elastic Constant Matrix: (Units=GPa)
#
#
# Indices 1 2 3 4 5 6 
#
# 1 200.3038 52.6025 35.2725 21.0844 21.0101 9.3408
# 2 52.6025 148.4691 26.7762 38.9427 1.0135 13.7485
# 3 35.2725 26.7762 79.1403 7.9862 16.5268 -1.1720
# 4 21.0844 38.9427 7.9862 40.0378 -1.9301 9.4607
# 5 21.0101 1.0135 16.5268 -1.9301 38.3157 -7.1252
# 6 9.3408 13.7485 -1.1720 9.4607 -7.1252 17.6101
#
#
#
# Elastic Compliance Matrix: (Units=1/GPa)
#
#
# Indices 1 2 3 4 5 6 
#
# 1 0.006228 -0.001322 -0.001566 -0.001102 -0.003344 -0.003137
# 2 -0.001322 0.009889 -0.002104 -0.007827 0.000462 -0.002768
# 3 -0.001566 -0.002104 0.015284 -0.000855 -0.005393 0.001768
# 4 -0.001102 -0.007827 -0.000855 0.036355 0.000664 -0.012625
# 5 -0.003344 0.000462 -0.005393 0.000664 0.032884 0.014002
# 6 -0.003137 -0.002768 0.001768 -0.012625 0.014002 0.073176
#
#
# Mechanical properties :
#
#
# Convention : Reuss Voigt Hill
#
# Bulk Modulus (GPa) = 46.69034 73.02394 59.85714
# Shear Modulus (GPa) = 26.18631 40.07686 33.13159
#
# Velocity S-wave (km/s) = 3.43185 4.24559 3.86022
# Velocity P-wave (km/s) = 6.05830 7.54166 6.84031
#
# Compressibility (1/GPa) = 0.02141771
#
# Stress axis : x y z
#
# Youngs Moduli (GPa) = 160.55812 101.11863 65.42700
#
# Poissons Ratio (x) = 0.13368 0.10243
# Poissons Ratio (y) = 0.21227 0.13769
# Poissons Ratio (z) = 0.25137 0.21279
#
# Static dielectric constant tensor:
#      x y z
#    x 1.828770 0.004100 0.033690 
#    y 0.004100 1.758330 -0.055150 
#    z 0.033690 -0.055150 1.979290 
# 
# From -- ./inp_files/7371.got.cif
#   From: 2010.05.17/outbox.cif.g08.bks.cpg/sg1_4_cif.got.tgz:7371.got - 2010.05.17 20:27:59.
