data_PCOD9000182
_publ_section_title
;
Structure prediction by ZEFSAII (Michael W. Deem and Ramdas Pophale) SiO2 
 PCOD9000182
Probable space group: P 1
;
_chemical_formula_sum "Si O2"
_cell_formula_units_Z 8
_cell_length_a 10.923060
_cell_length_b 5.245846
_cell_length_c 12.386065
_cell_angle_alpha 110.084839
_cell_angle_beta 146.266102
_cell_angle_gamma 58.657271
_cell_volume 330.620989
_symmetry_space_group_name_H-M "P 1"
_symmetry_group_IT_number 1
_symmetry_cell_setting 'triclinic'
loop_
_space_group_symop_operation_xyz
x,y,z
loop_
_atom_site_type_symbol
_atom_site_label
_atom_site_fract_x
_atom_site_fract_y
_atom_site_fract_z
Si Si1 0.511200 0.656340 0.578900
Si Si2 0.163098 0.401053 0.305964
Si Si3 0.619119 0.606742 0.982118
Si Si4 0.964811 0.537502 0.612167
Si Si5 0.397950 0.149287 0.721745
Si Si6 0.072723 0.487917 0.015370
Si Si7 0.420830 0.743197 0.288316
Si Si8 0.185981 0.994955 0.872540
O O1 0.365179 0.500406 0.510927
O O2 0.519067 0.555811 0.446515
O O3 0.375039 0.005857 0.570332
O O4 0.791964 0.572132 0.797134
O O5 0.064852 0.588418 0.147753
O O6 0.291973 0.072114 0.297152
O O7 0.909888 0.489130 0.195454
O O8 0.565460 0.325519 0.868346
O O9 0.450387 0.761445 0.984878
O O10 0.515523 0.867129 0.851299
O O11 0.133543 0.382799 0.609407
O O12 0.018474 0.818722 0.725942
O O13 0.674043 0.655117 0.398832
O O14 0.068405 0.277112 0.742984
O O15 0.218743 0.643857 0.083348
O O16 0.208893 0.138393 0.023955
#
# Coordination Sequence:
#
# PCOD9000182 Si02
#       8
#     1   1   1   1   1   1   1   1
#     4  11  23  41  64  94 127 171 213 260 323 376
#     4  11  25  39  64  97 129 165 217 267 311 386
#     4  10  22  42  65  95 128 165 217 260 315 383
#     4  10  22  42  65  95 128 165 217 260 315 383
#     4  10  22  41  68  92 126 173 209 262 319 377
#     4  11  23  41  64  94 127 171 213 260 323 376
#     4  11  25  39  64  97 129 165 217 267 311 386
#     4  10  22  41  68  92 126 173 209 262 319 377
#
# _framework density 24.196891000000001
#
# number of rings (size 3 to 8) (size 9 to 14) (size 15 to 20)
#    0.000    1.500    2.500    1.500    7.000    3.000 
#    0.000    1.250    0.000    0.000    0.000    0.000 
#    0.000    0.000    0.000    0.000    0.000    0.000 
#
# Total GULP energy -44681.327460 kJ/mol
# GULP energy per Si atom -5585.165932 kJ/mol
# Density = 2.414182 g / cm^3
# Si number density = 24.196891 Si / 1000 Ang^3
#
#
#
# Elastic Constant Matrix: (Units=GPa)
#
#
# Indices 1 2 3 4 5 6 
#
# 1 63.9438 28.5180 48.6005 15.5435 28.9190 -2.7256
# 2 28.5180 141.4131 44.2351 26.4791 36.6658 9.4229
# 3 48.6005 44.2351 141.9211 9.1891 64.7711 -4.0990
# 4 15.5435 26.4791 9.1891 41.6691 -1.4177 8.1922
# 5 28.9190 36.6658 64.7711 -1.4177 64.2908 3.7583
# 6 -2.7256 9.4229 -4.0990 8.1922 3.7583 52.5548
#
#
#
# Elastic Compliance Matrix: (Units=1/GPa)
#
#
# Indices 1 2 3 4 5 6 
#
# 1 0.024500 -0.000374 -0.004705 -0.008628 -0.006420 0.002775
# 2 -0.000374 0.009758 -0.000023 -0.006160 -0.005484 -0.000418
# 3 -0.004705 -0.000023 0.014796 -0.002368 -0.012958 0.002210
# 4 -0.008628 -0.006160 -0.002368 0.033096 0.010829 -0.005461
# 5 -0.006420 -0.005484 -0.012958 0.010829 0.035130 -0.004561
# 6 0.002775 -0.000418 0.002210 -0.005461 -0.004561 0.020596
#
#
# Mechanical properties :
#
#
# Convention : Reuss Voigt Hill
#
# Bulk Modulus (GPa) = 25.74047 65.55390 45.64718
# Shear Modulus (GPa) = 31.05006 46.76456 38.90731
#
# Velocity S-wave (km/s) = 3.58610 4.40098 4.01427
# Velocity P-wave (km/s) = 5.27331 7.27843 6.35545
#
# Compressibility (1/GPa) = 0.03884934
#
# Stress axis : x y z
#
# Youngs Moduli (GPa) = 40.81566 102.48419 67.58757
#
# Poissons Ratio (x) = 0.03832 0.31798
# Poissons Ratio (y) = 0.01526 0.00159
# Poissons Ratio (z) = 0.19203 0.00240
#
# Static dielectric constant tensor:
#      x y z
#    x 2.161610 0.150280 -0.165750 
#    y 0.150280 1.989400 -0.098980 
#    z -0.165750 -0.098980 1.986680 
# 
# From -- ./inp_files/351.got.cif
#   From: 2010.05.17/outbox.cif.g08.bks.cpg/sg1_1_cif.got.tgz:351.got - 2010.05.17 20:27:59.
