data_PCOD9000916
_publ_section_title
;
Structure prediction by ZEFSAII (Michael W. Deem and Ramdas Pophale) SiO2 
 PCOD9000916
Probable space group: P 1
;
_chemical_formula_sum "Si O2"
_cell_formula_units_Z 8
_cell_length_a 13.063303
_cell_length_b 5.008499
_cell_length_c 6.800658
_cell_angle_alpha 106.647730
_cell_angle_beta 106.596473
_cell_angle_gamma 89.927474
_cell_volume 406.964626
_symmetry_space_group_name_H-M "P 1"
_symmetry_group_IT_number 1
_symmetry_cell_setting 'triclinic'
loop_
_space_group_symop_operation_xyz
x,y,z
loop_
_atom_site_type_symbol
_atom_site_label
_atom_site_fract_x
_atom_site_fract_y
_atom_site_fract_z
Si Si1 0.510840 0.201130 0.386620
Si Si2 0.617630 0.792709 0.631466
Si Si3 0.851964 0.886593 0.936829
Si Si4 0.344533 0.250942 0.651387
Si Si5 0.913670 0.467536 0.211049
Si Si6 0.449867 0.842038 0.893854
Si Si7 0.101217 0.372155 0.536104
Si Si8 0.993467 0.883786 0.646639
O O1 0.563694 0.511860 0.441848
O O2 0.407235 0.219157 0.474191
O O3 0.595333 0.047562 0.531893
O O4 0.479549 0.023785 0.139561
O O5 0.740531 0.785106 0.752980
O O6 0.552505 0.827059 0.805616
O O7 0.892003 0.646317 0.045985
O O8 0.939799 0.965929 0.834248
O O9 0.841693 0.175471 0.110297
O O10 0.402326 0.527440 0.844532
O O11 0.220889 0.294521 0.562838
O O12 0.364221 0.989306 0.744254
O O13 0.905640 0.679566 0.434387
O O14 0.035740 0.388498 0.298893
O O15 0.088268 0.678477 0.685356
O O16 0.035905 0.141592 0.588369
#
# Coordination Sequence:
#
# PCOD9000916 Si02
#       8
#     1   1   1   1   1   1   1   1
#     4  10  21  41  58  89 114 147 193 242 289 351
#     4  10  23  37  61  86 119 147 192 243 287 340
#     4  12  22  39  62  86 118 163 192 237 294 343
#     4  10  21  39  60  86 118 148 192 238 292 339
#     4  10  22  39  57  85 121 153 201 238 279 345
#     4  10  21  39  62  87 114 148 193 240 288 357
#     4  10  20  43  58  83 128 153 185 257 280 332
#     4  10  22  39  56  84 122 157 194 241 277 343
#
# _framework density 19.657730000000001
#
# number of rings (size 3 to 8) (size 9 to 14) (size 15 to 20)
#    0.750    1.000    1.250    3.000    0.000    2.000 
#    6.750    0.000    0.000    0.000    0.000    0.000 
#    0.000    0.000    0.000    0.000    0.000    0.000 
#
# Total GULP energy -44622.395595 kJ/mol
# GULP energy per Si atom -5577.799449 kJ/mol
# Density = 1.961299 g / cm^3
# Si number density = 19.657730 Si / 1000 Ang^3
#
#
#
# Elastic Constant Matrix: (Units=GPa)
#
#
# Indices 1 2 3 4 5 6 
#
# 1 62.9148 14.9989 35.0729 -13.9698 14.9097 -12.7795
# 2 14.9989 87.7562 8.7442 -10.6814 -7.0397 -6.2084
# 3 35.0729 8.7442 56.7733 11.4826 4.6537 -8.7847
# 4 -13.9698 -10.6814 11.4826 39.6863 -9.7698 4.7048
# 5 14.9097 -7.0397 4.6537 -9.7698 12.3462 -0.4710
# 6 -12.7795 -6.2084 -8.7847 4.7048 -0.4710 15.0522
#
#
#
# Elastic Compliance Matrix: (Units=1/GPa)
#
#
# Indices 1 2 3 4 5 6 
#
# 1 0.046247 -0.006959 -0.022326 0.007540 -0.044687 0.019609
# 2 -0.006959 0.015788 -0.002527 0.009154 0.025491 -0.002936
# 3 -0.022326 -0.002527 0.038159 -0.022133 -0.006034 0.009002
# 4 0.007540 0.009154 -0.022133 0.049242 0.042782 -0.016792
# 5 -0.044687 0.025491 -0.006034 0.042782 0.184155 -0.038557
# 6 0.019609 -0.002936 0.009002 -0.016792 -0.038557 0.091169
#
#
# Mechanical properties :
#
#
# Convention : Reuss Voigt Hill
#
# Bulk Modulus (GPa) = 27.34598 36.11961 31.73280
# Shear Modulus (GPa) = 9.98851 23.32549 16.65700
#
# Velocity S-wave (km/s) = 2.25660 3.44842 2.91409
# Velocity P-wave (km/s) = 4.55312 5.85402 5.24407
#
# Compressibility (1/GPa) = 0.03656844
#
# Stress axis : x y z
#
# Youngs Moduli (GPa) = 21.62309 63.33960 26.20588
#
# Poissons Ratio (x) = 0.44081 0.58507
# Poissons Ratio (y) = 0.15048 0.06624
# Poissons Ratio (z) = 0.48275 0.16009
#
# Static dielectric constant tensor:
#      x y z
#    x 1.666760 -0.015540 0.000370 
#    y -0.015540 1.691340 0.016680 
#    z 0.000370 0.016680 1.673530 
# 
# From -- ./inp_files/1992.got.cif
#   From: 2010.05.17/outbox.cif.g08.bks.cpg/sg1_1_cif.got.tgz:1992.got - 2010.05.17 20:27:59.
