data_PCOD9000203
_publ_section_title
;
Structure prediction by ZEFSAII (Michael W. Deem and Ramdas Pophale) SiO2 
 PCOD9000203
Probable space group: P 1
;
_chemical_formula_sum "Si O2"
_cell_formula_units_Z 8
_cell_length_a 9.060706
_cell_length_b 10.470803
_cell_length_c 13.817182
_cell_angle_alpha 29.206786
_cell_angle_beta 30.096600
_cell_angle_gamma 41.978660
_cell_volume 320.390294
_symmetry_space_group_name_H-M "P 1"
_symmetry_group_IT_number 1
_symmetry_cell_setting 'triclinic'
loop_
_space_group_symop_operation_xyz
x,y,z
loop_
_atom_site_type_symbol
_atom_site_label
_atom_site_fract_x
_atom_site_fract_y
_atom_site_fract_z
Si Si1 0.130150 0.677050 0.884670
Si Si2 0.798013 0.767085 0.212448
Si Si3 0.632866 0.231949 0.598192
Si Si4 0.798591 0.428894 0.978436
Si Si5 0.704643 0.665877 0.676307
Si Si6 0.123553 0.881860 0.148646
Si Si7 0.188709 0.939857 0.481586
Si Si8 0.634283 0.273865 0.362283
O O1 0.446036 0.596568 0.794018
O O2 0.185129 0.899773 0.625657
O O3 0.959993 0.774170 0.012276
O O4 0.938363 0.445686 0.094162
O O5 0.640078 0.477277 0.501533
O O6 0.524731 0.954354 0.246809
O O7 0.020310 0.798061 0.155375
O O8 0.483350 0.305408 0.531695
O O9 0.972383 0.168793 0.429776
O O10 0.464739 0.971040 0.903665
O O11 0.685699 0.478467 0.902585
O O12 0.020048 0.680611 0.703949
O O13 0.548710 0.387100 0.231429
O O14 0.966871 0.159904 0.067464
O O15 0.003227 0.690957 0.427676
O O16 0.658560 0.962478 0.544373
#
# Coordination Sequence:
#
# PCOD9000203 Si02
#       8
#     1   1   1   1   1   1   1   1
#     4  10  23  43  67 103 140 182 240 288 347 422
#     4  11  24  45  69 100 146 184 234 297 344 422
#     4  11  23  45  71 104 140 188 234 288 362 415
#     4  10  22  42  70 100 135 188 227 288 357 405
#     4  11  21  43  70 102 141 186 231 292 355 411
#     4  11  24  43  69 103 147 180 235 293 346 428
#     4  11  22  46  70 100 143 181 234 292 349 416
#     4   9  21  41  66  96 138 177 229 294 336 415
#
# _framework density 24.969548
#
# number of rings (size 3 to 8) (size 9 to 14) (size 15 to 20)
#    0.000    1.500    3.750    0.750    0.000    3.000 
#    4.500    0.000    0.000    0.000    0.000    0.000 
#    0.000    0.000    0.000    0.000    0.000    0.000 
#
# Total GULP energy -44737.978579 kJ/mol
# GULP energy per Si atom -5592.247322 kJ/mol
# Density = 2.491272 g / cm^3
# Si number density = 24.969548 Si / 1000 Ang^3
#
#
#
# Elastic Constant Matrix: (Units=GPa)
#
#
# Indices 1 2 3 4 5 6 
#
# 1 109.5705 11.6047 26.8710 -3.8651 14.9071 6.9391
# 2 11.6047 70.4627 16.6139 -3.7152 -4.4566 2.1439
# 3 26.8710 16.6139 90.7449 14.2796 8.4229 0.8876
# 4 -3.8651 -3.7152 14.2796 35.1335 -0.0474 -3.8098
# 5 14.9071 -4.4566 8.4229 -0.0474 45.8873 -15.1974
# 6 6.9391 2.1439 0.8876 -3.8098 -15.1974 39.1470
#
#
#
# Elastic Compliance Matrix: (Units=1/GPa)
#
#
# Indices 1 2 3 4 5 6 
#
# 1 0.010786 -0.001169 -0.002857 0.001870 -0.004156 -0.003214
# 2 -0.001169 0.015439 -0.003196 0.002890 0.002725 0.000773
# 3 -0.002857 -0.003196 0.013669 -0.006333 -0.002271 -0.001127
# 4 0.001870 0.002890 -0.006333 0.031937 0.002047 0.003556
# 5 -0.004156 0.002725 -0.002271 0.002047 0.027660 0.011576
# 6 -0.003214 0.000773 -0.001127 0.003556 0.011576 0.030938
#
#
# Mechanical properties :
#
#
# Convention : Reuss Voigt Hill
#
# Bulk Modulus (GPa) = 39.29158 42.32859 40.81008
# Shear Modulus (GPa) = 32.60377 38.41278 35.50828
#
# Velocity S-wave (km/s) = 3.61742 3.92648 3.77512
# Velocity P-wave (km/s) = 5.76347 6.12742 5.94823
#
# Compressibility (1/GPa) = 0.02545075
#
# Stress axis : x y z
#
# Youngs Moduli (GPa) = 92.71337 64.77023 73.15623
#
# Poissons Ratio (x) = 0.07573 0.20900
# Poissons Ratio (y) = 0.10840 0.23379
# Poissons Ratio (z) = 0.26487 0.20699
#
# Static dielectric constant tensor:
#      x y z
#    x 1.967040 0.008930 0.024590 
#    y 0.008930 1.992550 0.039530 
#    z 0.024590 0.039530 1.999750 
# 
# From -- ./inp_files/4985.got.cif
#   From: 2010.05.17/outbox.cif.g08.bks.cpg/sg1_3_cif.got.tgz:4985.got - 2010.05.17 20:27:59.
