data_PCOD9001852
_publ_section_title
;
Structure prediction by ZEFSAII (Michael W. Deem and Ramdas Pophale) SiO2 
 PCOD9001852
Probable space group: P -1
;
_chemical_formula_sum "Si O2"
_cell_formula_units_Z 16
_cell_length_a 14.038183
_cell_length_b 9.007067
_cell_length_c 8.362963
_cell_angle_alpha 92.839828
_cell_angle_beta 139.059643
_cell_angle_gamma 101.975628
_cell_volume 641.771528
_symmetry_space_group_name_H-M "P -1"
_symmetry_group_IT_number 2
_symmetry_cell_setting 'triclinic'
loop_
_space_group_symop_operation_xyz
x,y,z
-x,-y,-z
loop_
_atom_site_type_symbol
_atom_site_label
_atom_site_fract_x
_atom_site_fract_y
_atom_site_fract_z
Si Si1 0.546289 0.271525 0.971999
Si Si2 0.917791 0.013139 0.563388
Si Si3 0.611608 0.850312 0.648968
Si Si4 0.247201 0.288913 0.449204
Si Si5 0.609527 0.958990 0.987315
Si Si6 0.738183 0.216062 0.768540
Si Si7 0.855677 0.430802 0.195631
Si Si8 0.966609 0.675489 0.060498
O O1 0.406880 0.332916 0.756429
O O2 0.544761 0.101275 0.883861
O O3 0.520915 0.203906 0.115628
O O4 0.705243 0.401369 0.114889
O O5 0.871424 0.854810 0.604105
O O6 0.752613 0.023464 0.297151
O O7 0.000000 0.000000 0.500000
O O8 0.006958 0.157965 0.803962
O O9 0.689881 0.756010 0.639238
O O10 0.667530 0.897471 0.901455
O O11 0.423941 0.754486 0.416781
O O12 0.669529 0.025272 0.650418
O O13 0.140186 0.373532 0.238370
O O14 0.860281 0.295163 0.787224
O O15 0.825116 0.265483 0.053120
O O16 0.888261 0.548365 0.092539
O O17 0.000000 0.500000 0.500000
#
# Coordination Sequence:
#
# PCOD9001852 Si02
#       8
#     2   2   2   2   2   2   2   2
#     4  10  21  41  61  98 127 176 232 279 330 405
#     4  11  24  41  66 105 143 175 228 291 348 401
#     4  11  20  40  74  99 133 174 230 297 332 387
#     4  11  23  43  67  98 136 177 228 290 338 397
#     4  10  21  35  70  95 131 172 227 293 339 375
#     4  11  24  43  67 105 134 178 234 280 339 404
#     4  12  26  45  68  98 143 184 228 278 342 422
#     4  12  27  41  69 101 141 190 220 277 356 414
#
# _framework density 24.930990999999999
#
# number of rings (size 3 to 8) (size 9 to 14) (size 15 to 20)
#    0.000    1.000    3.750    3.000    7.000    0.500 
#    0.000    0.000    0.000    3.000    0.000    0.000 
#    0.000    0.000    0.000    0.000    0.000    0.000 
#
# Total GULP energy -89283.316558 kJ/mol
# GULP energy per Si atom -5580.207285 kJ/mol
# Density = 2.487425 g / cm^3
# Si number density = 24.930991 Si / 1000 Ang^3
#
#
#
# Elastic Constant Matrix: (Units=GPa)
#
#
# Indices 1 2 3 4 5 6 
#
# 1 106.3668 42.0287 16.9642 7.8476 26.6199 35.3260
# 2 42.0287 100.4753 55.1293 1.3722 21.8858 54.7536
# 3 16.9642 55.1293 133.0799 -1.4382 11.1195 9.2431
# 4 7.8476 1.3722 -1.4382 25.7531 11.7539 -0.4186
# 5 26.6199 21.8858 11.1195 11.7539 42.5149 10.6785
# 6 35.3260 54.7536 9.2431 -0.4186 10.6785 45.4500
#
#
#
# Elastic Compliance Matrix: (Units=1/GPa)
#
#
# Indices 1 2 3 4 5 6 
#
# 1 0.014795 0.005164 -0.002393 -0.002072 -0.006790 -0.015658
# 2 0.005164 0.054910 -0.018127 -0.001935 -0.010119 -0.064118
# 3 -0.002393 -0.018127 0.013801 0.002131 0.001465 0.020566
# 4 -0.002072 -0.001935 0.002131 0.045539 -0.012583 0.006885
# 5 -0.006790 -0.010119 0.001465 -0.012583 0.033788 0.009116
# 6 -0.015658 -0.064118 0.020566 0.006885 0.009116 0.105154
#
#
# Mechanical properties :
#
#
# Convention : Reuss Voigt Hill
#
# Bulk Modulus (GPa) = 18.94152 63.12962 41.03557
# Shear Modulus (GPa) = 15.80802 37.79693 26.80247
#
# Velocity S-wave (km/s) = 2.52081 3.89789 3.28238
# Velocity P-wave (km/s) = 4.01082 6.75535 5.55524
#
# Compressibility (1/GPa) = 0.05279406
#
# Stress axis : x y z
#
# Youngs Moduli (GPa) = 67.59035 18.21166 72.45960
#
# Poissons Ratio (x) = -0.09405 0.17338
# Poissons Ratio (y) = -0.34905 1.31349
# Poissons Ratio (z) = 0.16173 0.33013
#
# Static dielectric constant tensor:
#      x y z
#    x 2.019010 -0.037540 0.082470 
#    y -0.037540 2.006780 -0.002310 
#    z 0.082470 -0.002310 2.134940 
# 
# From -- ./inp_files/305208.got.cif
#   From: 2010.05.17/outbox.cif.g08.bks.cpg/sg2_153_cif.got.tgz:305208.got - 2010.06.03 11:33:40.
