data_PCOD9001539
_publ_section_title
;
Structure prediction by ZEFSAII (Michael W. Deem and Ramdas Pophale) SiO2 
 PCOD9001539
Probable space group: P -1
;
_chemical_formula_sum "Si O2"
_cell_formula_units_Z 16
_cell_length_a 12.061544
_cell_length_b 10.444218
_cell_length_c 5.619750
_cell_angle_alpha 81.641637
_cell_angle_beta 76.299696
_cell_angle_gamma 107.762901
_cell_volume 636.631501
_symmetry_space_group_name_H-M "P -1"
_symmetry_group_IT_number 2
_symmetry_cell_setting 'triclinic'
loop_
_space_group_symop_operation_xyz
x,y,z
-x,-y,-z
loop_
_atom_site_type_symbol
_atom_site_label
_atom_site_fract_x
_atom_site_fract_y
_atom_site_fract_z
Si Si1 0.424626 0.170868 0.324523
Si Si2 0.347686 0.685917 0.514375
Si Si3 0.092006 0.669981 0.793714
Si Si4 0.011622 0.313877 0.662648
Si Si5 0.465373 0.382803 0.852270
Si Si6 0.359323 0.926521 0.147510
Si Si7 0.151993 0.944778 0.942277
Si Si8 0.760765 0.741159 0.299192
O O1 0.548171 0.207012 0.401486
O O2 0.335825 0.236148 0.477598
O O3 0.348268 0.011998 0.361979
O O4 0.455742 0.243983 0.034335
O O5 0.218094 0.638426 0.726017
O O6 0.424796 0.593748 0.400362
O O7 0.320532 0.767997 0.281065
O O8 0.118049 0.836510 0.771151
O O9 0.024232 0.638846 0.582558
O O10 0.023931 0.621365 0.095479
O O11 0.152040 0.329594 0.610561
O O12 0.935635 0.149108 0.782036
O O13 0.329005 0.349936 0.832651
O O14 0.500000 0.500000 0.000000
O O15 0.284120 0.954081 0.963697
O O16 0.500000 0.000000 0.000000
O O17 0.158828 0.101954 0.869607
#
# Coordination Sequence:
#
# PCOD9001539 Si02
#       8
#     2   2   2   2   2   2   2   2
#     4  11  23  36  66  88 132 168 214 268 331 390
#     4  11  21  38  60  95 128 168 207 270 326 392
#     4  10  22  37  61  95 133 171 214 254 320 392
#     4  10  24  38  62  95 141 177 214 254 318 403
#     4  11  26  45  65  91 121 170 228 278 329 376
#     4  12  18  34  58  96 133 168 206 257 329 399
#     4  10  21  35  57  95 138 171 213 248 320 397
#     4  11  23  40  60  93 127 178 215 267 319 384
#
# _framework density 25.132276000000001
#
# number of rings (size 3 to 8) (size 9 to 14) (size 15 to 20)
#    0.750    0.500    3.750    3.000    3.500    2.500 
#    0.000    0.000    0.000    1.500    0.000    0.000 
#    0.000    0.000    0.000    0.000    0.000    0.000 
#
# Total GULP energy -89406.306911 kJ/mol
# GULP energy per Si atom -5587.894182 kJ/mol
# Density = 2.507507 g / cm^3
# Si number density = 25.132276 Si / 1000 Ang^3
#
#
#
# Elastic Constant Matrix: (Units=GPa)
#
#
# Indices 1 2 3 4 5 6 
#
# 1 131.3982 33.8712 72.8497 23.8519 4.1022 -10.2647
# 2 33.8712 90.7785 30.2950 7.6425 12.5077 7.5961
# 3 72.8497 30.2950 113.7414 4.1643 18.2753 7.9235
# 4 23.8519 7.6425 4.1643 49.2794 7.9403 6.8309
# 5 4.1022 12.5077 18.2753 7.9403 39.5788 3.2623
# 6 -10.2647 7.5961 7.9235 6.8309 3.2623 17.7744
#
#
#
# Elastic Compliance Matrix: (Units=1/GPa)
#
#
# Indices 1 2 3 4 5 6 
#
# 1 0.020608 -0.004803 -0.014162 -0.012375 0.006439 0.023842
# 2 -0.004803 0.013716 0.000580 0.001999 -0.003766 -0.008971
# 3 -0.014162 0.000580 0.020040 0.009073 -0.008195 -0.019343
# 4 -0.012375 0.001999 0.009073 0.029483 -0.007642 -0.021974
# 5 0.006439 -0.003766 -0.008195 -0.007642 0.030586 0.006304
# 6 0.023842 -0.008971 -0.019343 -0.021974 0.006304 0.089774
#
#
# Mechanical properties :
#
#
# Convention : Reuss Voigt Hill
#
# Bulk Modulus (GPa) = 56.84031 67.77223 62.30627
# Shear Modulus (GPa) = 20.25581 34.58665 27.42123
#
# Velocity S-wave (km/s) = 2.84204 3.71372 3.30673
# Velocity P-wave (km/s) = 5.78231 6.73897 6.27889
#
# Compressibility (1/GPa) = 0.01759315
#
# Stress axis : x y z
#
# Youngs Moduli (GPa) = 48.52368 72.90898 49.89981
#
# Poissons Ratio (x) = 0.35021 0.70670
# Poissons Ratio (y) = 0.23308 -0.02895
# Poissons Ratio (z) = 0.68721 -0.04230
#
# Static dielectric constant tensor:
#      x y z
#    x 1.960050 0.035120 -0.052500 
#    y 0.035120 2.227210 0.047080 
#    z -0.052500 0.047080 2.062830 
# 
# From -- ./inp_files/70479.got.cif
#   From: 2010.05.17/outbox.cif.g08.bks.cpg/sg2_36_cif.got.tgz:70479.got - 2010.06.03 11:33:40.
