data_PCOD9001952
_publ_section_title
;
Structure prediction by ZEFSAII (Michael W. Deem and Ramdas Pophale) SiO2 
 PCOD9001952
Probable space group: P -1
;
_chemical_formula_sum "Si O2"
_cell_formula_units_Z 16
_cell_length_a 27.563160
_cell_length_b 22.883498
_cell_length_c 8.595601
_cell_angle_alpha 131.272354
_cell_angle_beta 47.235427
_cell_angle_gamma 169.950302
_cell_volume 692.876480
_symmetry_space_group_name_H-M "P -1"
_symmetry_group_IT_number 2
_symmetry_cell_setting 'triclinic'
loop_
_space_group_symop_operation_xyz
x,y,z
-x,-y,-z
loop_
_atom_site_type_symbol
_atom_site_label
_atom_site_fract_x
_atom_site_fract_y
_atom_site_fract_z
Si Si1 0.420453 0.360723 0.085302
Si Si2 0.169106 0.800447 0.600672
Si Si3 0.371284 0.711533 0.030004
Si Si4 0.259839 0.791360 0.674181
Si Si5 0.668000 0.597566 0.478650
Si Si6 0.819020 0.650921 0.031191
Si Si7 0.364893 0.584225 0.544914
Si Si8 0.099506 0.199270 0.196130
O O1 0.494832 0.508546 0.317550
O O2 0.500000 0.500000 0.000000
O O3 0.571480 0.452016 0.904981
O O4 0.087979 0.961204 0.105508
O O5 0.284415 0.882276 0.639322
O O6 0.901408 0.545252 0.797738
O O7 0.038558 0.591980 0.389037
O O8 0.403290 0.120512 0.565930
O O9 0.664334 0.088458 0.108526
O O10 0.358070 0.626278 0.033300
O O11 0.337255 0.627217 0.793732
O O12 0.500000 0.000000 0.500000
O O13 0.660953 0.550749 0.242196
O O14 0.564846 0.410214 0.488633
O O15 0.000000 0.000000 0.500000
O O16 0.942333 0.791685 0.839024
O O17 0.083315 0.228719 0.442583
O O18 0.000000 0.000000 0.000000
#
# Coordination Sequence:
#
# PCOD9001952 Si02
#       8
#     2   2   2   2   2   2   2   2
#     4  11  19  35  57  76 111 157 204 255 309 354
#     4  10  21  41  69  94 123 162 200 244 306 376
#     4  10  22  40  62  90 128 159 197 254 306 365
#     4   9  20  43  68  94 129 159 191 248 313 368
#     4   9  19  37  55  80 118 156 201 257 305 345
#     4  10  21  36  55  81 117 153 197 258 304 356
#     4  11  22  38  63  91 121 163 212 255 303 365
#     4  12  22  35  57  83 114 160 210 254 306 356
#
# _framework density 23.092141000000002
#
# number of rings (size 3 to 8) (size 9 to 14) (size 15 to 20)
#    0.000    1.750    2.500    2.250    0.000    1.000 
#    0.000   14.375    0.000    0.000    0.000    0.000 
#    0.000    0.000    0.000    0.000    0.000    0.000 
#
# Total GULP energy -89081.697094 kJ/mol
# GULP energy per Si atom -5567.606068 kJ/mol
# Density = 2.303958 g / cm^3
# Si number density = 23.092141 Si / 1000 Ang^3
#
#
#
# Elastic Constant Matrix: (Units=GPa)
#
#
# Indices 1 2 3 4 5 6 
#
# 1 72.4212 19.9982 35.9101 3.2652 -2.9157 -12.5436
# 2 19.9982 81.3379 40.9501 26.6205 0.1241 -18.3198
# 3 35.9101 40.9501 142.7780 41.0196 3.0429 5.3935
# 4 3.2652 26.6205 41.0196 38.9513 5.5185 3.9146
# 5 -2.9157 0.1241 3.0429 5.5185 33.2289 2.7550
# 6 -12.5436 -18.3198 5.3935 3.9146 2.7550 23.2436
#
#
#
# Elastic Compliance Matrix: (Units=1/GPa)
#
#
# Indices 1 2 3 4 5 6 
#
# 1 0.018604 -0.000533 -0.006110 0.004114 0.000660 0.010267
# 2 -0.000533 0.023930 -0.003183 -0.015272 0.000886 0.021779
# 3 -0.006110 -0.003183 0.012554 -0.009897 0.000560 -0.007119
# 4 0.004114 -0.015272 -0.009897 0.048475 -0.005480 -0.015035
# 5 0.000660 0.000886 0.000560 -0.005480 0.031161 -0.001846
# 6 0.010267 0.021779 -0.007119 -0.015035 -0.001846 0.070132
#
#
# Mechanical properties :
#
#
# Convention : Reuss Voigt Hill
#
# Bulk Modulus (GPa) = 28.22049 54.47267 41.34658
# Shear Modulus (GPa) = 21.15769 32.39667 26.77718
#
# Velocity S-wave (km/s) = 3.03021 3.74963 3.40895
# Velocity P-wave (km/s) = 4.94876 6.51052 5.78261
#
# Compressibility (1/GPa) = 0.03543525
#
# Stress axis : x y z
#
# Youngs Moduli (GPa) = 53.75107 41.78791 79.65658
#
# Poissons Ratio (x) = 0.02228 0.48671
# Poissons Ratio (y) = 0.02866 0.25358
# Poissons Ratio (z) = 0.32842 0.13303
#
# Static dielectric constant tensor:
#      x y z
#    x 1.856610 0.043140 0.072710 
#    y 0.043140 1.959300 0.041760 
#    z 0.072710 0.041760 1.881130 
# 
# From -- ./inp_files/359046.got.cif
#   From: 2010.05.17/outbox.cif.g08.bks.cpg/sg2_180_cif.got.tgz:359046.got - 2010.06.03 11:33:40.
