data_PCOD9001464
_publ_section_title
;
Structure prediction by ZEFSAII (Michael W. Deem and Ramdas Pophale) SiO2 
 PCOD9001464
Probable space group: P -1
;
_chemical_formula_sum "Si O2"
_cell_formula_units_Z 16
_cell_length_a 7.971871
_cell_length_b 22.510665
_cell_length_c 6.495985
_cell_angle_alpha 72.391992
_cell_angle_beta 115.482274
_cell_angle_gamma 61.885511
_cell_volume 717.339241
_symmetry_space_group_name_H-M "P -1"
_symmetry_group_IT_number 2
_symmetry_cell_setting 'triclinic'
loop_
_space_group_symop_operation_xyz
x,y,z
-x,-y,-z
loop_
_atom_site_type_symbol
_atom_site_label
_atom_site_fract_x
_atom_site_fract_y
_atom_site_fract_z
Si Si1 0.313249 0.055778 0.031442
Si Si2 0.414198 0.112064 0.380887
Si Si3 0.453102 0.242302 0.735172
Si Si4 0.848044 0.667956 0.135586
Si Si5 0.320207 0.599690 0.741905
Si Si6 0.733953 0.597766 0.812728
Si Si7 0.039902 0.266112 0.254130
Si Si8 0.170151 0.897921 0.226527
O O1 0.352879 0.111021 0.114026
O O2 0.405753 0.983020 0.324448
O O3 0.017070 0.109430 0.763868
O O4 0.500000 0.000000 0.000000
O O5 0.580777 0.135822 0.480882
O O6 0.143471 0.178689 0.295664
O O7 0.405405 0.261807 0.929728
O O8 0.350915 0.328158 0.470573
O O9 0.726681 0.156695 0.874042
O O10 0.263119 0.231653 0.570745
O O11 0.082361 0.624021 0.466334
O O12 0.796638 0.615562 0.046034
O O13 0.932638 0.693495 0.966560
O O14 0.493619 0.606818 0.695261
O O15 0.216153 0.660835 0.825974
O O16 0.500000 0.500000 0.000000
O O17 0.000000 0.500000 0.000000
O O18 0.000000 0.000000 0.000000
#
# Coordination Sequence:
#
# PCOD9001464 Si02
#       8
#     2   2   2   2   2   2   2   2
#     4  10  21  35  56  83 113 152 193 236 290 344
#     4   9  20  38  54  80 117 146 189 243 282 343
#     4   9  20  39  60  87 118 151 199 241 286 356
#     4  10  22  41  62  83 118 156 188 243 297 339
#     4  11  24  40  61  89 117 151 196 240 290 355
#     4  11  24  40  60  88 119 154 197 241 289 350
#     4   9  20  38  60  86 115 151 195 239 290 349
#     4   9  19  37  58  82 115 151 189 236 288 343
#
# _framework density 22.304649999999999
#
# number of rings (size 3 to 8) (size 9 to 14) (size 15 to 20)
#    0.000    2.250    0.000    2.250    0.000   12.500 
#    0.000    8.750    0.000    0.000    0.000    0.000 
#    0.000    0.000    0.000    0.000    0.000    0.000 
#
# Total GULP energy -89183.669566 kJ/mol
# GULP energy per Si atom -5573.979348 kJ/mol
# Density = 2.225388 g / cm^3
# Si number density = 22.304650 Si / 1000 Ang^3
#
#
#
# Elastic Constant Matrix: (Units=GPa)
#
#
# Indices 1 2 3 4 5 6 
#
# 1 86.9137 35.0275 29.0699 12.5091 12.8912 -18.8597
# 2 35.0275 157.4713 38.4513 14.4335 5.1707 -31.4528
# 3 29.0699 38.4513 59.2285 8.5233 -2.9744 1.4228
# 4 12.5091 14.4335 8.5233 44.3695 5.2714 2.0868
# 5 12.8912 5.1707 -2.9744 5.2714 30.8277 0.0117
# 6 -18.8597 -31.4528 1.4228 2.0868 0.0117 39.4096
#
#
#
# Elastic Compliance Matrix: (Units=1/GPa)
#
#
# Indices 1 2 3 4 5 6 
#
# 1 0.018206 0.000841 -0.009692 -0.003039 -0.008173 0.009897
# 2 0.000841 0.009820 -0.006783 -0.002264 -0.002269 0.008605
# 3 -0.009692 -0.006783 0.026795 -0.000629 0.007888 -0.010988
# 4 -0.003039 -0.002264 -0.000629 0.024780 -0.002646 -0.004550
# 5 -0.008173 -0.002269 0.007888 -0.002646 0.037453 -0.005878
# 6 0.009897 0.008605 -0.010988 -0.004550 -0.005878 0.037618
#
#
# Mechanical properties :
#
#
# Convention : Reuss Voigt Hill
#
# Bulk Modulus (GPa) = 42.45933 56.52344 49.49138
# Shear Modulus (GPa) = 25.80091 36.32568 31.06329
#
# Velocity S-wave (km/s) = 3.40479 4.03999 3.73591
# Velocity P-wave (km/s) = 5.87658 6.86721 6.39112
#
# Compressibility (1/GPa) = 0.02355195
#
# Stress axis : x y z
#
# Youngs Moduli (GPa) = 54.92752 101.82826 37.32064
#
# Poissons Ratio (x) = -0.08560 0.36172
# Poissons Ratio (y) = -0.04617 0.25314
# Poissons Ratio (z) = 0.53237 0.69070
#
# Static dielectric constant tensor:
#      x y z
#    x 1.888700 0.041830 0.017990 
#    y 0.041830 1.874490 0.008390 
#    z 0.017990 0.008390 1.827040 
# 
# From -- ./inp_files/52440.got.cif
#   From: 2010.05.17/outbox.cif.g08.bks.cpg/sg2_27_cif.got.tgz:52440.got - 2010.06.03 11:33:40.
