data_PCOD9001533
_publ_section_title
;
Structure prediction by ZEFSAII (Michael W. Deem and Ramdas Pophale) SiO2 
 PCOD9001533
Probable space group: P -1
;
_chemical_formula_sum "Si O2"
_cell_formula_units_Z 16
_cell_length_a 12.278236
_cell_length_b 8.853144
_cell_length_c 25.362912
_cell_angle_alpha 137.742024
_cell_angle_beta 35.347190
_cell_angle_gamma 109.833164
_cell_volume 786.791940
_symmetry_space_group_name_H-M "P -1"
_symmetry_group_IT_number 2
_symmetry_cell_setting 'triclinic'
loop_
_space_group_symop_operation_xyz
x,y,z
-x,-y,-z
loop_
_atom_site_type_symbol
_atom_site_label
_atom_site_fract_x
_atom_site_fract_y
_atom_site_fract_z
Si Si1 0.590290 0.506314 0.589066
Si Si2 0.686427 0.672739 0.814052
Si Si3 0.937855 0.223440 0.767263
Si Si4 0.567965 0.276491 0.855489
Si Si5 0.281114 0.272123 0.503020
Si Si6 0.295011 0.829034 0.331975
Si Si7 0.301523 0.320070 0.629504
Si Si8 0.710370 0.714533 0.691590
O O1 0.625284 0.636311 0.556954
O O2 0.349166 0.533725 0.685503
O O3 0.576793 0.658093 0.687778
O O4 0.838846 0.137753 0.401429
O O5 0.579752 0.506701 0.821935
O O6 0.711366 0.640354 0.732431
O O7 0.973377 0.493341 0.674886
O O8 0.500000 0.000000 0.000000
O O9 0.788613 0.267184 0.784726
O O10 0.043442 0.388898 0.759957
O O11 0.717341 0.398984 0.943866
O O12 0.658135 0.076542 0.715936
O O13 0.580363 0.063095 0.836825
O O14 0.346764 0.290774 0.541084
O O15 0.381586 0.932199 0.368486
O O16 0.000000 0.000000 0.500000
O O17 0.500000 0.000000 0.500000
O O18 0.000000 0.500000 0.500000
#
# Coordination Sequence:
#
# PCOD9001533 Si02
#       8
#     2   2   2   2   2   2   2   2
#     4  11  22  41  65  90 123 174 218 260 306 390
#     4  11  25  36  61  99 138 161 199 267 335 379
#     4  10  22  36  62  92 125 165 206 259 324 375
#     4  11  21  36  62  93 129 158 202 267 327 374
#     4  11  21  40  64  91 123 164 222 260 313 378
#     4  10  21  35  57  91 123 161 200 258 315 373
#     4  10  24  41  65  88 126 171 221 258 312 382
#     4  12  21  39  63  96 128 166 213 261 319 382
#
# _framework density 20.335744999999999
#
# number of rings (size 3 to 8) (size 9 to 14) (size 15 to 20)
#    0.000    1.250    3.750    2.625   10.500    0.000 
#    0.000    0.625    0.000    3.000    0.000    0.000 
#    0.000    0.000    0.000    0.000    0.000    0.000 
#
# Total GULP energy -89127.473209 kJ/mol
# GULP energy per Si atom -5570.467076 kJ/mol
# Density = 2.028946 g / cm^3
# Si number density = 20.335745 Si / 1000 Ang^3
#
#
#
# Elastic Constant Matrix: (Units=GPa)
#
#
# Indices 1 2 3 4 5 6 
#
# 1 131.5583 39.0534 18.2498 -7.0112 25.0933 18.3932
# 2 39.0534 80.6755 16.3892 0.2523 5.1943 20.1440
# 3 18.2498 16.3892 64.0717 2.7099 10.9746 8.3003
# 4 -7.0112 0.2523 2.7099 29.3950 -0.3922 11.0669
# 5 25.0933 5.1943 10.9746 -0.3922 25.5945 -0.6782
# 6 18.3932 20.1440 8.3003 11.0669 -0.6782 44.9645
#
#
#
# Elastic Compliance Matrix: (Units=1/GPa)
#
#
# Indices 1 2 3 4 5 6 
#
# 1 0.011599 -0.003873 -0.000139 0.004249 -0.010572 -0.004189
# 2 -0.003873 0.016048 -0.002618 0.001234 0.001539 -0.005403
# 3 -0.000139 -0.002618 0.017813 -0.001027 -0.007037 -0.001912
# 4 0.004249 0.001234 -0.001027 0.039544 -0.003685 -0.011890
# 5 -0.010572 0.001539 -0.007037 -0.003685 0.052260 0.006629
# 6 -0.004189 -0.005403 -0.001912 -0.011890 0.006629 0.029753
#
#
# Mechanical properties :
#
#
# Convention : Reuss Voigt Hill
#
# Bulk Modulus (GPa) = 31.05593 47.07670 39.06632
# Shear Modulus (GPa) = 26.17660 33.49833 29.83747
#
# Velocity S-wave (km/s) = 3.59168 4.06305 3.83462
# Velocity P-wave (km/s) = 5.70131 6.72393 6.23362
#
# Compressibility (1/GPa) = 0.03219997
#
# Stress axis : x y z
#
# Youngs Moduli (GPa) = 86.21590 62.31275 56.13820
#
# Poissons Ratio (x) = 0.24135 0.00782
# Poissons Ratio (y) = 0.33393 0.14695
# Poissons Ratio (z) = 0.01200 0.16311
#
# Static dielectric constant tensor:
#      x y z
#    x 1.874820 -0.189850 0.042070 
#    y -0.189850 2.027440 -0.027090 
#    z 0.042070 -0.027090 1.743110 
# 
# From -- ./inp_files/256870.got.cif
#   From: 2010.05.17/outbox.cif.g08.bks.cpg/sg2_129_cif.got.tgz:256870.got - 2010.06.03 11:33:40.
