data_PCOD9001783
_publ_section_title
;
Structure prediction by ZEFSAII (Michael W. Deem and Ramdas Pophale) SiO2 
 PCOD9001783
Probable space group: P -1
;
_chemical_formula_sum "Si O2"
_cell_formula_units_Z 10
_cell_length_a 10.105435
_cell_length_b 12.450246
_cell_length_c 9.545503
_cell_angle_alpha 60.104859
_cell_angle_beta 69.570048
_cell_angle_gamma 122.507891
_cell_volume 471.182298
_symmetry_space_group_name_H-M "P -1"
_symmetry_group_IT_number 2
_symmetry_cell_setting 'triclinic'
loop_
_space_group_symop_operation_xyz
x,y,z
-x,-y,-z
loop_
_atom_site_type_symbol
_atom_site_label
_atom_site_fract_x
_atom_site_fract_y
_atom_site_fract_z
Si Si1 0.903650 0.068245 0.958985
Si Si2 0.059233 0.724209 0.925240
Si Si3 0.582672 0.245539 0.220113
Si Si4 0.320585 0.255768 0.148299
Si Si5 0.463655 0.573522 0.341895
O O1 0.121901 0.292289 0.616262
O O2 0.944506 0.188819 0.997173
O O3 0.569175 0.787690 0.220743
O O4 0.000000 0.000000 0.000000
O O5 0.199275 0.699271 0.930511
O O6 0.287264 0.961229 0.578653
O O7 0.752074 0.459459 0.134693
O O8 0.490962 0.259677 0.115545
O O9 0.500000 0.500000 0.000000
O O10 0.336044 0.295257 0.952309
O O11 0.000000 0.000000 0.500000
O O12 0.500000 0.500000 0.500000
#
# Coordination Sequence:
#
# PCOD9001783 Si02
#       5
#     2   2   2   2   2
#     4  10  21  35  63  87 125 160 216 250 313 377
#     4  10  21  41  64  94 123 173 207 265 307 396
#     4  10  23  39  64  91 130 164 218 254 327 361
#     4  12  26  40  64  95 132 165 214 273 309 370
#     4  10  23  39  57  91 126 167 208 252 325 376
#
# _framework density 21.223208
#
# number of rings (size 3 to 8) (size 9 to 14) (size 15 to 20)
#    0.000    1.600    0.000    3.600   16.800    0.000 
#    0.000    2.000    0.000    0.000    0.000    0.000 
#    0.000    0.000    0.000    0.000    0.000    0.000 
#
# Total GULP energy -55808.447449 kJ/mol
# GULP energy per Si atom -5580.844745 kJ/mol
# Density = 2.117490 g / cm^3
# Si number density = 21.223208 Si / 1000 Ang^3
#
#
#
# Elastic Constant Matrix: (Units=GPa)
#
#
# Indices 1 2 3 4 5 6 
#
# 1 84.5679 27.5554 26.2164 6.9494 13.2191 -0.4978
# 2 27.5554 129.6383 46.5235 -10.6089 15.7594 -19.0959
# 3 26.2164 46.5235 125.3449 -20.6420 20.6942 5.3272
# 4 6.9494 -10.6089 -20.6420 56.8430 0.6867 2.9338
# 5 13.2191 15.7594 20.6942 0.6867 17.3639 3.1737
# 6 -0.4978 -19.0959 5.3272 2.9338 3.1737 30.1175
#
#
#
# Elastic Compliance Matrix: (Units=1/GPa)
#
#
# Indices 1 2 3 4 5 6 
#
# 1 0.014237 -0.001706 -0.001562 -0.002560 -0.007411 0.000460
# 2 -0.001706 0.011252 -0.002851 0.000932 -0.007062 0.008264
# 3 -0.001562 -0.002851 0.011836 0.004247 -0.009894 -0.003298
# 4 -0.002560 0.000932 0.004247 0.019761 -0.004436 -0.001660
# 5 -0.007411 -0.007062 -0.009894 -0.004436 0.083663 -0.011234
# 6 0.000460 0.008264 -0.003298 -0.001660 -0.011234 0.040379
#
#
# Mechanical properties :
#
#
# Convention : Reuss Voigt Hill
#
# Bulk Modulus (GPa) = 39.86393 60.01575 49.93984
# Shear Modulus (GPa) = 24.78586 36.81528 30.80057
#
# Velocity S-wave (km/s) = 3.42111 4.16946 3.81368
# Velocity P-wave (km/s) = 5.86765 7.17767 6.55546
#
# Compressibility (1/GPa) = 0.02508533
#
# Stress axis : x y z
#
# Youngs Moduli (GPa) = 70.24171 88.87567 84.48821
#
# Poissons Ratio (x) = 0.15166 0.13197
# Poissons Ratio (y) = 0.11986 0.24088
# Poissons Ratio (z) = 0.10972 0.25339
#
# Static dielectric constant tensor:
#      x y z
#    x 1.815780 0.066480 -0.077310 
#    y 0.066480 1.840820 -0.063570 
#    z -0.077310 -0.063570 1.859460 
# 
# From -- ./inp_files/17537.got.cif
#   From: 2010.05.17/outbox.cif.g08.bks.cpg/sg2_9_cif.got.tgz:17537.got - 2010.06.03 11:33:40.
