data_PCOD9001505
_publ_section_title
;
Structure prediction by ZEFSAII (Michael W. Deem and Ramdas Pophale) SiO2 
 PCOD9001505
Probable space group: P -1
;
_chemical_formula_sum "Si O2"
_cell_formula_units_Z 16
_cell_length_a 16.285169
_cell_length_b 4.994185
_cell_length_c 11.526156
_cell_angle_alpha 79.233136
_cell_angle_beta 105.540132
_cell_angle_gamma 58.463041
_cell_volume 706.124017
_symmetry_space_group_name_H-M "P -1"
_symmetry_group_IT_number 2
_symmetry_cell_setting 'triclinic'
loop_
_space_group_symop_operation_xyz
x,y,z
-x,-y,-z
loop_
_atom_site_type_symbol
_atom_site_label
_atom_site_fract_x
_atom_site_fract_y
_atom_site_fract_z
Si Si1 0.601212 0.466783 0.994494
Si Si2 0.214149 0.740900 0.746269
Si Si3 0.891325 0.113751 0.091807
Si Si4 0.773372 0.691634 0.721200
Si Si5 0.331386 0.134581 0.104392
Si Si6 0.161803 0.132321 0.483087
Si Si7 0.943028 0.361253 0.379106
Si Si8 0.904145 0.910966 0.858212
O O1 0.676937 0.392291 0.138819
O O2 0.500000 0.500000 0.000000
O O3 0.582745 0.797707 0.901660
O O4 0.655010 0.159428 0.945111
O O5 0.126335 0.026276 0.785479
O O6 0.158433 0.551921 0.737727
O O7 0.223530 0.787187 0.609300
O O8 0.781202 0.493991 0.997043
O O9 0.906266 0.903163 0.000076
O O10 0.989325 0.132963 0.134299
O O11 0.676674 0.907400 0.758128
O O12 0.767126 0.833542 0.579952
O O13 0.809899 0.308135 0.756312
O O14 0.867920 0.687091 0.818103
O O15 0.110309 0.378728 0.555135
O O16 0.051703 0.256734 0.367889
O O17 0.000000 0.000000 0.500000
#
# Coordination Sequence:
#
# PCOD9001505 Si02
#       8
#     2   2   2   2   2   2   2   2
#     4  11  24  44  69  92 113 143 194 259 320 366
#     4  10  21  35  57  82 116 152 196 250 293 346
#     4   9  20  35  53  81 120 154 201 241 287 344
#     4  11  22  36  56  81 121 161 200 234 279 352
#     4  10  22  41  61  89 115 152 193 244 312 358
#     4  10  22  33  55  82 121 166 202 235 279 338
#     4   9  20  36  48  82 118 166 208 231 276 328
#     4  10  22  34  52  82 118 168 198 234 279 337
#
# _framework density 22.658909000000001
#
# number of rings (size 3 to 8) (size 9 to 14) (size 15 to 20)
#    0.000    2.000    0.000    3.375   12.250    6.500 
#    0.000    0.000    0.000    1.500    0.000    0.000 
#    0.000    0.000    0.000    0.000    0.000    0.000 
#
# Total GULP energy -89162.502500 kJ/mol
# GULP energy per Si atom -5572.656406 kJ/mol
# Density = 2.260734 g / cm^3
# Si number density = 22.658909 Si / 1000 Ang^3
#
#
#
# Elastic Constant Matrix: (Units=GPa)
#
#
# Indices 1 2 3 4 5 6 
#
# 1 135.8050 1.8631 50.6213 10.5026 -11.2899 1.6719
# 2 1.8631 34.2575 -2.2478 5.6530 -0.4188 10.2196
# 3 50.6213 -2.2478 97.5164 17.8926 -33.0985 -6.3591
# 4 10.5026 5.6530 17.8926 13.8042 -0.3665 -2.5950
# 5 -11.2899 -0.4188 -33.0985 -0.3665 45.1715 5.5644
# 6 1.6719 10.2196 -6.3591 -2.5950 5.5644 30.7593
#
#
#
# Elastic Compliance Matrix: (Units=1/GPa)
#
#
# Indices 1 2 3 4 5 6 
#
# 1 0.009280 -0.000496 -0.005384 -0.000143 -0.001484 -0.001196
# 2 -0.000496 0.039107 0.008101 -0.028775 0.007805 -0.015131
# 3 -0.005384 0.008101 0.024400 -0.030966 0.016725 -0.002993
# 4 -0.000143 -0.028775 -0.030966 0.127265 -0.024211 0.018283
# 5 -0.001484 0.007805 0.016725 -0.024211 0.034809 -0.007394
# 6 -0.001196 -0.015131 -0.002993 0.018283 -0.007394 0.039864
#
#
# Mechanical properties :
#
#
# Convention : Reuss Voigt Hill
#
# Bulk Modulus (GPa) = 12.94868 40.89468 26.92168
# Shear Modulus (GPa) = 16.89052 32.43649 24.66350
#
# Velocity S-wave (km/s) = 2.73321 3.78764 3.30277
# Velocity P-wave (km/s) = 3.96076 6.10044 5.14310
#
# Compressibility (1/GPa) = 0.07722796
#
# Stress axis : x y z
#
# Youngs Moduli (GPa) = 107.76321 25.57108 40.98434
#
# Poissons Ratio (x) = 0.01267 0.22066
# Poissons Ratio (y) = 0.05341 -0.33200
# Poissons Ratio (z) = 0.58021 -0.20714
#
# Static dielectric constant tensor:
#      x y z
#    x 1.897390 0.050640 -0.029170 
#    y 0.050640 2.021660 0.052520 
#    z -0.029170 0.052520 1.688270 
# 
# From -- ./inp_files/441830.got.cif
#   From: 2010.05.17/outbox.cif.g08.bks.cpg/sg2_221_cif.got.tgz:441830.got - 2010.06.03 11:33:40.
