data_PCOD9001612
_publ_section_title
;
Structure prediction by ZEFSAII (Michael W. Deem and Ramdas Pophale) SiO2 
 PCOD9001612
Probable space group: P -1
;
_chemical_formula_sum "Si O2"
_cell_formula_units_Z 16
_cell_length_a 10.625373
_cell_length_b 10.754978
_cell_length_c 10.973678
_cell_angle_alpha 108.869781
_cell_angle_beta 36.823074
_cell_angle_gamma 94.716706
_cell_volume 675.815143
_symmetry_space_group_name_H-M "P -1"
_symmetry_group_IT_number 2
_symmetry_cell_setting 'triclinic'
loop_
_space_group_symop_operation_xyz
x,y,z
-x,-y,-z
loop_
_atom_site_type_symbol
_atom_site_label
_atom_site_fract_x
_atom_site_fract_y
_atom_site_fract_z
Si Si1 0.728447 0.177950 0.342937
Si Si2 0.473182 0.854476 0.936738
Si Si3 0.891793 0.035021 0.921855
Si Si4 0.799548 0.390573 0.541777
Si Si5 0.867824 0.644518 0.437246
Si Si6 0.299785 0.476904 0.985526
Si Si7 0.754618 0.768680 0.901271
Si Si8 0.349603 0.414817 0.650865
O O1 0.779030 0.306185 0.408648
O O2 0.472542 0.252302 0.538328
O O3 0.837419 0.131113 0.112989
O O4 0.846287 0.049312 0.300554
O O5 0.666898 0.781675 0.666895
O O6 0.540826 0.777721 0.988483
O O7 0.233982 0.879434 0.069488
O O8 0.500000 0.000000 0.000000
O O9 0.774332 0.912621 0.984141
O O10 0.833365 0.532587 0.522931
O O11 0.559660 0.434153 0.800912
O O12 0.032649 0.285677 0.372462
O O13 0.819738 0.593144 0.324433
O O14 0.132065 0.614157 0.218544
O O15 0.281408 0.486157 0.856436
O O16 0.229290 0.346336 0.046469
O O17 0.500000 0.500000 0.500000
#
# Coordination Sequence:
#
# PCOD9001612 Si02
#       8
#     2   2   2   2   2   2   2   2
#     4   9  16  30  57  87 112 146 191 231 293 347
#     4  10  21  38  62  83 116 161 205 238 278 348
#     4   9  17  32  58  82 112 158 194 235 284 340
#     4   9  19  36  58  87 118 147 185 246 297 348
#     4  11  20  36  61  88 117 156 192 238 301 345
#     4  10  21  35  59  91 123 146 190 246 298 353
#     4   9  20  38  58  84 118 159 199 236 287 341
#     4  11  19  35  61  90 124 148 185 244 305 357
#
# _framework density 23.675113
#
# number of rings (size 3 to 8) (size 9 to 14) (size 15 to 20)
#    0.000    2.250    3.750    0.375    0.000    2.000 
#    0.000    5.000    0.000   28.500    0.000    0.000 
#    0.000    0.000    0.000    0.000    0.000    0.000 
#
# Total GULP energy -89068.673417 kJ/mol
# GULP energy per Si atom -5566.792089 kJ/mol
# Density = 2.362123 g / cm^3
# Si number density = 23.675113 Si / 1000 Ang^3
#
#
#
# Elastic Constant Matrix: (Units=GPa)
#
#
# Indices 1 2 3 4 5 6 
#
# 1 86.3105 9.2859 0.6114 5.0852 -6.0593 -3.0258
# 2 9.2859 47.1704 39.9001 4.9169 5.4246 -4.3699
# 3 0.6114 39.9001 115.9567 15.3202 -3.2597 7.9063
# 4 5.0852 4.9169 15.3202 32.6529 -0.1838 1.6139
# 5 -6.0593 5.4246 -3.2597 -0.1838 48.3013 9.5383
# 6 -3.0258 -4.3699 7.9063 1.6139 9.5383 21.9990
#
#
#
# Elastic Compliance Matrix: (Units=1/GPa)
#
#
# Indices 1 2 3 4 5 6 
#
# 1 0.012247 -0.003866 0.001629 -0.002055 0.002163 -0.000456
# 2 -0.003866 0.035803 -0.013674 0.000834 -0.008403 0.015077
# 3 0.001629 -0.013674 0.014699 -0.004600 0.004575 -0.009421
# 4 -0.002055 0.000834 -0.004600 0.033011 -0.000395 -0.000714
# 5 0.002163 -0.008403 0.004575 -0.000395 0.024952 -0.013805
# 6 -0.000456 0.015077 -0.009421 -0.000714 -0.013805 0.057813
#
#
# Mechanical properties :
#
#
# Convention : Reuss Voigt Hill
#
# Bulk Modulus (GPa) = 32.33230 38.78136 35.55683
# Shear Modulus (GPa) = 22.65986 33.90000 28.27993
#
# Velocity S-wave (km/s) = 3.09709 3.78813 3.45990
# Velocity P-wave (km/s) = 5.14544 5.96233 5.56889
#
# Compressibility (1/GPa) = 0.03092883
#
# Stress axis : x y z
#
# Youngs Moduli (GPa) = 81.65039 27.93071 68.03188
#
# Poissons Ratio (x) = 0.10797 -0.11082
# Poissons Ratio (y) = 0.31562 0.93024
# Poissons Ratio (z) = -0.13300 0.38191
#
# Static dielectric constant tensor:
#      x y z
#    x 2.064050 -0.052590 -0.080360 
#    y -0.052590 1.859750 0.048370 
#    z -0.080360 0.048370 1.969780 
# 
# From -- ./inp_files/426299.got.cif
#   From: 2010.05.17/outbox.cif.g08.bks.cpg/sg2_214_cif.got.tgz:426299.got - 2010.06.03 11:33:40.
