data_PCOD9001009
_publ_section_title
;
Structure prediction by ZEFSAII (Michael W. Deem and Ramdas Pophale) SiO2 
 PCOD9001009
Probable space group: P -1
;
_chemical_formula_sum "Si O2"
_cell_formula_units_Z 16
_cell_length_a 16.973223
_cell_length_b 14.928380
_cell_length_c 15.457957
_cell_angle_alpha 161.070981
_cell_angle_beta 44.844156
_cell_angle_gamma 135.091153
_cell_volume 883.844230
_symmetry_space_group_name_H-M "P -1"
_symmetry_group_IT_number 2
_symmetry_cell_setting 'triclinic'
loop_
_space_group_symop_operation_xyz
x,y,z
-x,-y,-z
loop_
_atom_site_type_symbol
_atom_site_label
_atom_site_fract_x
_atom_site_fract_y
_atom_site_fract_z
Si Si1 0.915896 0.166689 0.837919
Si Si2 0.066027 0.743688 0.295523
Si Si3 0.450883 0.206104 0.852221
Si Si4 0.339614 0.993610 0.089355
Si Si5 0.713441 0.478508 0.055551
Si Si6 0.373811 0.407344 0.602042
Si Si7 0.398012 0.208588 0.712052
Si Si8 0.484838 0.015225 0.829285
O O1 0.897528 0.151745 0.734391
O O2 0.793095 0.083663 0.898876
O O3 0.007854 0.964517 0.595407
O O4 0.970890 0.474292 0.105578
O O5 0.176321 0.654590 0.170249
O O6 0.367596 0.175443 0.806840
O O7 0.557698 0.066144 0.607537
O O8 0.418491 0.044464 0.818750
O O9 0.495933 0.532050 0.133932
O O10 0.349791 0.219529 0.364157
O O11 0.384212 0.722230 0.846783
O O12 0.410921 0.078011 0.025332
O O13 0.602035 0.237167 0.931095
O O14 0.722263 0.618886 0.272566
O O15 0.689171 0.692769 0.196602
O O16 0.475780 0.284066 0.457501
#
# Coordination Sequence:
#
# PCOD9001009 Si02
#       8
#     2   2   2   2   2   2   2   2
#     4  10  21  36  48  70  94 137 173 211 241 284
#     4  10  21  33  53  68  97 130 172 213 249 288
#     4   9  18  32  50  72 100 133 161 201 252 301
#     4  12  25  35  51  71 108 142 177 201 242 297
#     4  11  22  34  54  79 103 134 166 211 262 299
#     4  12  22  34  47  78 104 140 167 201 248 300
#     4   9  18  32  50  73 102 126 163 206 251 307
#     4  11  23  35  53  76 107 139 168 204 250 308
#
# _framework density 18.102737000000001
#
# number of rings (size 3 to 8) (size 9 to 14) (size 15 to 20)
#    0.000    1.500    3.750    1.500    7.000    0.000 
#    0.000    0.000    0.000    0.000    0.000    1.750 
#    0.000    0.000    0.000    0.000    0.000    0.000 
#
# Total GULP energy -89327.177114 kJ/mol
# GULP energy per Si atom -5582.948570 kJ/mol
# Density = 1.806153 g / cm^3
# Si number density = 18.102737 Si / 1000 Ang^3
#
#
#
# Elastic Constant Matrix: (Units=GPa)
#
#
# Indices 1 2 3 4 5 6 
#
# 1 76.8984 42.6922 8.3097 -11.5825 -12.0181 -24.4307
# 2 42.6922 62.9107 16.0954 -12.1703 -4.7221 -6.1315
# 3 8.3097 16.0954 74.6820 0.1918 -4.1047 -6.3640
# 4 -11.5825 -12.1703 0.1918 16.3070 0.5091 -0.9727
# 5 -12.0181 -4.7221 -4.1047 0.5091 27.7709 -4.0006
# 6 -24.4307 -6.1315 -6.3640 -0.9727 -4.0006 33.0051
#
#
#
# Elastic Compliance Matrix: (Units=1/GPa)
#
#
# Indices 1 2 3 4 5 6 
#
# 1 0.035860 -0.019024 0.003185 0.012275 0.016269 0.025958
# 2 -0.019024 0.030617 -0.005646 0.008985 -0.005449 -0.009879
# 3 0.003185 -0.005646 0.014823 -0.001960 0.003294 0.004508
# 4 0.012275 0.008985 -0.001960 0.077356 0.007079 0.013515
# 5 0.016269 -0.005449 0.003294 0.007079 0.044976 0.017326
# 6 0.025958 -0.009879 0.004508 0.013515 0.017326 0.051045
#
#
# Mechanical properties :
#
#
# Convention : Reuss Voigt Hill
#
# Bulk Modulus (GPa) = 26.09039 38.74284 32.41661
# Shear Modulus (GPa) = 16.10701 25.24285 20.67493
#
# Velocity S-wave (km/s) = 2.98611 3.73825 3.38315
# Velocity P-wave (km/s) = 5.13155 6.33094 5.76253
#
# Compressibility (1/GPa) = 0.03832828
#
# Stress axis : x y z
#
# Youngs Moduli (GPa) = 27.88610 32.66211 67.46342
#
# Poissons Ratio (x) = 0.62137 -0.21485
# Poissons Ratio (y) = 0.53051 0.38090
# Poissons Ratio (z) = -0.08881 0.18441
#
# Static dielectric constant tensor:
#      x y z
#    x 1.663620 -0.008200 0.019940 
#    y -0.008200 1.632330 0.023430 
#    z 0.019940 0.023430 1.674720 
# 
# From -- ./inp_files/126610.got.cif
#   From: 2010.05.17/outbox.cif.g08.bks.cpg/sg2_64_cif.got.tgz:126610.got - 2010.06.03 11:33:40.
