data_PCOD9001526
_publ_section_title
;
Structure prediction by ZEFSAII (Michael W. Deem and Ramdas Pophale) SiO2 
 PCOD9001526
Probable space group: P -1
;
_chemical_formula_sum "Si O2"
_cell_formula_units_Z 14
_cell_length_a 14.707390
_cell_length_b 24.887118
_cell_length_c 14.244107
_cell_angle_alpha 160.774806
_cell_angle_beta 28.301522
_cell_angle_gamma 159.559558
_cell_volume 599.133212
_symmetry_space_group_name_H-M "P -1"
_symmetry_group_IT_number 2
_symmetry_cell_setting 'triclinic'
loop_
_space_group_symop_operation_xyz
x,y,z
-x,-y,-z
loop_
_atom_site_type_symbol
_atom_site_label
_atom_site_fract_x
_atom_site_fract_y
_atom_site_fract_z
Si Si1 0.654792 0.538062 0.829450
Si Si2 0.059827 0.294734 0.414512
Si Si3 0.263266 0.158539 0.136376
Si Si4 0.169740 0.338716 0.822438
Si Si5 0.280607 0.709849 0.766749
Si Si6 0.809216 0.980301 0.818881
Si Si7 0.222119 0.623790 0.080292
O O1 0.462031 0.507384 0.876507
O O2 0.681115 0.363672 0.487381
O O3 0.500000 0.500000 0.000000
O O4 0.945359 0.770803 0.964485
O O5 0.218402 0.310085 0.382491
O O6 0.197915 0.512283 0.586143
O O7 0.813883 0.241084 0.597136
O O8 0.976153 0.095782 0.097351
O O9 0.284152 0.157708 0.227052
O O10 0.511383 0.230965 0.977499
O O11 0.105944 0.115432 0.486386
O O12 0.177161 0.445759 0.896597
O O13 0.952549 0.295065 0.015658
O O14 0.561663 0.927418 0.909676
O O15 0.000000 0.500000 0.000000
#
# Coordination Sequence:
#
# PCOD9001526 Si02
#       7
#     2   2   2   2   2   2   2
#     4  11  25  46  68  93 124 162 211 272 329 377
#     4  10  21  35  57  88 126 167 207 248 299 368
#     4  11  20  34  59  87 124 169 209 247 302 363
#     4  10  24  42  65  95 133 164 212 260 309 380
#     4  10  22  44  63  94 130 163 209 263 311 380
#     4  11  23  40  66  93 122 170 212 260 318 375
#     4  11  22  37  56  92 132 170 206 250 300 369
#
# _framework density 23.367090000000001
#
# number of rings (size 3 to 8) (size 9 to 14) (size 15 to 20)
#    0.000    1.429    1.429    4.714    2.000    5.714 
#    5.143    1.429    0.000    0.000    0.000    0.000 
#    0.000    0.000    0.000    0.000    0.000    0.000 
#
# Total GULP energy -78329.623405 kJ/mol
# GULP energy per Si atom -5594.973100 kJ/mol
# Density = 2.331391 g / cm^3
# Si number density = 23.367090 Si / 1000 Ang^3
#
#
#
# Elastic Constant Matrix: (Units=GPa)
#
#
# Indices 1 2 3 4 5 6 
#
# 1 75.8562 17.5477 31.1758 -5.8144 4.6596 11.8874
# 2 17.5477 134.8380 53.0453 -18.3210 7.3083 12.4441
# 3 31.1758 53.0453 123.3055 -14.8880 8.3887 13.0651
# 4 -5.8144 -18.3210 -14.8880 51.6474 -0.0475 11.2672
# 5 4.6596 7.3083 8.3887 -0.0475 25.4364 -6.3792
# 6 11.8874 12.4441 13.0651 11.2672 -6.3792 45.5931
#
#
#
# Elastic Compliance Matrix: (Units=1/GPa)
#
#
# Indices 1 2 3 4 5 6 
#
# 1 0.015364 -0.000058 -0.003053 0.001681 -0.002770 -0.003918
# 2 -0.000058 0.009491 -0.003260 0.003009 -0.002315 -0.002708
# 3 -0.003053 -0.003260 0.010986 0.002184 -0.002720 -0.002382
# 4 0.001681 0.003009 0.002184 0.023015 -0.003885 -0.008117
# 5 -0.002770 -0.002315 -0.002720 -0.003885 0.043685 0.009206
# 6 -0.003918 -0.002708 -0.002382 -0.008117 0.009206 0.027671
#
#
# Mechanical properties :
#
#
# Convention : Reuss Voigt Hill
#
# Bulk Modulus (GPa) = 43.29502 59.72637 51.51069
# Shear Modulus (GPa) = 33.18878 40.01744 36.60311
#
# Velocity S-wave (km/s) = 3.77280 4.14279 3.96212
# Velocity P-wave (km/s) = 6.12757 6.96413 6.55920
#
# Compressibility (1/GPa) = 0.02309734
#
# Stress axis : x y z
#
# Youngs Moduli (GPa) = 65.08697 105.36546 91.02834
#
# Poissons Ratio (x) = 0.00614 0.27790
# Poissons Ratio (y) = 0.00379 0.29679
# Poissons Ratio (z) = 0.19870 0.34353
#
# Static dielectric constant tensor:
#      x y z
#    x 1.929290 0.040740 -0.022700 
#    y 0.040740 2.004650 -0.013660 
#    z -0.022700 -0.013660 1.899540 
# 
# From -- ./inp_files/535666.got.cif
#   From: 2010.05.17/outbox.cif.g08.bks.cpg/sg2_268_cif.got.tgz:535666.got - 2010.06.03 11:33:40.
