data_PCOD9001151
_publ_section_title
;
Structure prediction by ZEFSAII (Michael W. Deem and Ramdas Pophale) SiO2 
 PCOD9001151
Probable space group: P -1
;
_chemical_formula_sum "Si O2"
_cell_formula_units_Z 14
_cell_length_a 15.699930
_cell_length_b 14.209491
_cell_length_c 7.215053
_cell_angle_alpha 114.858055
_cell_angle_beta 87.532051
_cell_angle_gamma 146.443949
_cell_volume 638.052926
_symmetry_space_group_name_H-M "P -1"
_symmetry_group_IT_number 2
_symmetry_cell_setting 'triclinic'
loop_
_space_group_symop_operation_xyz
x,y,z
-x,-y,-z
loop_
_atom_site_type_symbol
_atom_site_label
_atom_site_fract_x
_atom_site_fract_y
_atom_site_fract_z
Si Si1 0.952693 0.123923 0.294611
Si Si2 0.465732 0.430610 0.159734
Si Si3 0.606109 0.210388 0.430361
Si Si4 0.682244 0.524486 0.708890
Si Si5 0.939335 0.529025 0.405142
Si Si6 0.744336 0.329811 0.910336
Si Si7 0.231846 0.404985 0.814330
O O1 0.129268 0.278972 0.276356
O O2 0.941027 0.235758 0.372186
O O3 0.024456 0.176937 0.541044
O O4 0.749604 0.851769 0.038503
O O5 0.456327 0.528247 0.352692
O O6 0.625298 0.515999 0.243835
O O7 0.500000 0.500000 0.000000
O O8 0.565653 0.288694 0.509020
O O9 0.719600 0.312408 0.315894
O O10 0.000000 0.500000 0.500000
O O11 0.423125 0.936487 0.250214
O O12 0.765728 0.622810 0.993124
O O13 0.246390 0.652395 0.298096
O O14 0.927764 0.500757 0.162410
O O15 0.697320 0.397659 0.030613
#
# Coordination Sequence:
#
# PCOD9001151 Si02
#       7
#     2   2   2   2   2   2   2
#     4  10  21  39  58  82 117 152 182 238 289 326
#     4  10  21  37  61  86 111 147 196 234 276 340
#     4   9  18  34  57  78 113 147 182 229 277 336
#     4   9  19  37  56  83 116 147 188 230 281 339
#     4  10  21  34  54  84 114 144 186 227 281 341
#     4   9  18  35  58  80 109 150 181 229 285 330
#     4   9  20  37  60  84 112 149 191 230 284 337
#
# _framework density 21.941752999999999
#
# number of rings (size 3 to 8) (size 9 to 14) (size 15 to 20)
#    0.000    2.571    0.000    0.857    2.000    3.429 
#    0.000    2.857    3.143    0.000    0.000    0.000 
#    0.000    0.000    0.000    0.000    0.000    0.000 
#
# Total GULP energy -78123.325919 kJ/mol
# GULP energy per Si atom -5580.237566 kJ/mol
# Density = 2.189181 g / cm^3
# Si number density = 21.941753 Si / 1000 Ang^3
#
#
#
# Elastic Constant Matrix: (Units=GPa)
#
#
# Indices 1 2 3 4 5 6 
#
# 1 124.2294 6.9651 37.1728 -7.8953 -3.9903 -5.6393
# 2 6.9651 51.2209 8.9283 -13.9328 -6.3310 -10.6803
# 3 37.1728 8.9283 55.1181 -9.6178 -8.1630 -1.2007
# 4 -7.8953 -13.9328 -9.6178 34.4212 -3.9483 -4.1336
# 5 -3.9903 -6.3310 -8.1630 -3.9483 19.4327 -5.6649
# 6 -5.6393 -10.6803 -1.2007 -4.1336 -5.6649 19.3677
#
#
#
# Elastic Compliance Matrix: (Units=1/GPa)
#
#
# Indices 1 2 3 4 5 6 
#
# 1 0.010268 0.001134 -0.006575 0.001578 0.001169 0.003886
# 2 0.001134 0.034831 0.001952 0.021737 0.026128 0.031940
# 3 -0.006575 0.001952 0.026058 0.008990 0.014041 0.006803
# 4 0.001578 0.021737 0.008990 0.048059 0.030312 0.032127
# 5 0.001169 0.026128 0.014041 0.030312 0.086045 0.047256
# 6 0.003886 0.031940 0.006803 0.032127 0.047256 0.091477
#
#
# Mechanical properties :
#
#
# Convention : Reuss Voigt Hill
#
# Bulk Modulus (GPa) = 15.58205 37.41119 26.49662
# Shear Modulus (GPa) = 15.37940 26.47779 20.92860
#
# Velocity S-wave (km/s) = 2.65036 3.47757 3.09176
# Velocity P-wave (km/s) = 4.05991 5.76298 4.98472
#
# Compressibility (1/GPa) = 0.06417639
#
# Stress axis : x y z
#
# Youngs Moduli (GPa) = 97.39182 28.71003 38.37617
#
# Poissons Ratio (x) = -0.03255 0.25234
# Poissons Ratio (y) = -0.11042 -0.07489
# Poissons Ratio (z) = 0.64039 -0.05603
#
# Static dielectric constant tensor:
#      x y z
#    x 1.857270 -0.009600 -0.002890 
#    y -0.009600 1.765070 -0.046440 
#    z -0.002890 -0.046440 1.804840 
# 
# From -- ./inp_files/315852.got.cif
#   From: 2010.05.17/outbox.cif.g08.bks.cpg/sg2_158_cif.got.tgz:315852.got - 2010.06.03 11:33:40.
