data_PCOD9001410
_publ_section_title
;
Structure prediction by ZEFSAII (Michael W. Deem and Ramdas Pophale) SiO2 
 PCOD9001410
Probable space group: P -1
;
_chemical_formula_sum "Si O2"
_cell_formula_units_Z 16
_cell_length_a 5.441841
_cell_length_b 22.193961
_cell_length_c 5.880218
_cell_angle_alpha 85.372438
_cell_angle_beta 89.895066
_cell_angle_gamma 119.030297
_cell_volume 618.254429
_symmetry_space_group_name_H-M "P -1"
_symmetry_group_IT_number 2
_symmetry_cell_setting 'triclinic'
loop_
_space_group_symop_operation_xyz
x,y,z
-x,-y,-z
loop_
_atom_site_type_symbol
_atom_site_label
_atom_site_fract_x
_atom_site_fract_y
_atom_site_fract_z
Si Si1 0.817621 0.206448 0.750148
Si Si2 0.456972 0.546284 0.794751
Si Si3 0.125026 0.170492 0.369274
Si Si4 0.851825 0.669825 0.991325
Si Si5 0.935183 0.577346 0.404344
Si Si6 0.675718 0.298766 0.395751
Si Si7 0.258960 0.081817 0.716502
Si Si8 0.209723 0.951012 0.893177
O O1 0.701072 0.252861 0.613235
O O2 0.543760 0.135008 0.832860
O O3 0.973031 0.185414 0.570284
O O4 0.048642 0.256721 0.913205
O O5 0.694866 0.561743 0.598549
O O6 0.152078 0.495315 0.700411
O O7 0.500000 0.500000 0.000000
O O8 0.544450 0.618969 0.899303
O O9 0.382525 0.246467 0.292988
O O10 0.249072 0.122412 0.481954
O O11 0.890367 0.121862 0.206042
O O12 0.892987 0.623580 0.198100
O O13 0.078893 0.685729 0.788276
O O14 0.238965 0.627998 0.502046
O O15 0.222687 0.006805 0.690179
O O16 0.016363 0.067176 0.901299
O O17 0.500000 0.000000 0.000000
#
# Coordination Sequence:
#
# PCOD9001410 Si02
#       8
#     2   2   2   2   2   2   2   2
#     4  10  21  35  55  81 109 144 188 230 276 335
#     4   8  13  23  46  79 112 144 184 230 275 325
#     4  11  23  39  59  82 111 148 187 232 285 339
#     4   9  16  30  50  76 110 146 184 229 277 328
#     4   8  14  26  47  79 109 143 189 229 273 328
#     4   9  19  34  53  77 109 146 186 232 278 331
#     4  10  23  41  60  83 113 147 185 233 281 339
#     4  11  24  40  61  87 113 145 186 232 285 342
#
# _framework density 25.87931
#
# number of rings (size 3 to 8) (size 9 to 14) (size 15 to 20)
#    0.000    2.500    0.000    1.875    0.000    8.000 
#    0.000    0.000    0.000    0.750    0.000   78.750 
#    0.000    0.000    0.000    0.000    0.000    0.250 
#
# Total GULP energy -89408.177451 kJ/mol
# GULP energy per Si atom -5588.011091 kJ/mol
# Density = 2.582041 g / cm^3
# Si number density = 25.879310 Si / 1000 Ang^3
#
#
#
# Elastic Constant Matrix: (Units=GPa)
#
#
# Indices 1 2 3 4 5 6 
#
# 1 32.0573 50.3364 11.9796 22.6661 13.2262 23.7506
# 2 50.3364 296.2037 77.2382 51.2139 16.1421 23.4956
# 3 11.9796 77.2382 70.1670 29.7399 22.8228 22.3020
# 4 22.6661 51.2139 29.7399 72.5807 6.8195 12.8376
# 5 13.2262 16.1421 22.8228 6.8195 41.4932 4.4583
# 6 23.7506 23.4956 22.3020 12.8376 4.4583 48.5397
#
#
#
# Elastic Compliance Matrix: (Units=1/GPa)
#
#
# Indices 1 2 3 4 5 6 
#
# 1 0.163093 -0.028444 0.065004 -0.037479 -0.061888 -0.080304
# 2 -0.028444 0.009878 -0.016618 0.005060 0.011993 0.014332
# 3 0.065004 -0.016618 0.054849 -0.020492 -0.036741 -0.040170
# 4 -0.037479 0.005060 -0.020492 0.025864 0.015164 0.017071
# 5 -0.061888 0.011993 -0.036741 0.015164 0.053393 0.032443
# 6 -0.080304 0.014332 -0.040170 0.017071 0.032443 0.063919
#
#
# Mechanical properties :
#
#
# Convention : Reuss Voigt Hill
#
# Bulk Modulus (GPa) = 3.73543 75.28181 39.50862
# Shear Modulus (GPa) = 11.89500 49.78098 30.83799
#
# Velocity S-wave (km/s) = 2.14623 4.39062 3.45571
# Velocity P-wave (km/s) = 2.75469 7.40649 5.58769
#
# Compressibility (1/GPa) = 0.26770649
#
# Stress axis : x y z
#
# Youngs Moduli (GPa) = 6.13147 101.23890 18.23177
#
# Poissons Ratio (x) = 2.87960 -1.18514
# Poissons Ratio (y) = 0.17440 0.30297
# Poissons Ratio (z) = -0.39857 1.68234
#
# Static dielectric constant tensor:
#      x y z
#    x 2.272770 0.094500 0.238370 
#    y 0.094500 2.127090 0.096780 
#    z 0.238370 0.096780 2.087250 
# 
# From -- ./inp_files/12820.got.cif
#   From: 2010.05.17/outbox.cif.g08.bks.cpg/sg2_7_cif.got.tgz:12820.got - 2010.06.03 11:33:40.
