data_PCOD9001329
_publ_section_title
;
Structure prediction by ZEFSAII (Michael W. Deem and Ramdas Pophale) SiO2 
 PCOD9001329
Probable space group: P -1
;
_chemical_formula_sum "Si O2"
_cell_formula_units_Z 16
_cell_length_a 9.232246
_cell_length_b 17.967306
_cell_length_c 7.624603
_cell_angle_alpha 86.633024
_cell_angle_beta 101.678398
_cell_angle_gamma 149.789460
_cell_volume 605.651304
_symmetry_space_group_name_H-M "P -1"
_symmetry_group_IT_number 2
_symmetry_cell_setting 'triclinic'
loop_
_space_group_symop_operation_xyz
x,y,z
-x,-y,-z
loop_
_atom_site_type_symbol
_atom_site_label
_atom_site_fract_x
_atom_site_fract_y
_atom_site_fract_z
Si Si1 0.289098 0.347287 0.163504
Si Si2 0.489090 0.162249 0.360015
Si Si3 0.627004 0.613079 0.361937
Si Si4 0.155790 0.127102 0.661778
Si Si5 0.293423 0.715990 0.199592
Si Si6 0.229460 0.572129 0.703475
Si Si7 0.274589 0.873656 0.118095
Si Si8 0.184117 0.834524 0.622725
O O1 0.420394 0.489573 0.174528
O O2 0.571976 0.416523 0.254393
O O3 0.048867 0.234980 0.282029
O O4 0.050613 0.230046 0.964996
O O5 0.602794 0.221904 0.580306
O O6 0.518675 0.253946 0.261083
O O7 0.715706 0.205472 0.316071
O O8 0.147950 0.983173 0.298446
O O9 0.500000 0.500000 0.500000
O O10 0.658376 0.716716 0.377063
O O11 0.974307 0.741742 0.414276
O O12 0.410305 0.192970 0.816998
O O13 0.000000 0.000000 0.500000
O O14 0.221289 0.762969 0.092955
O O15 0.997054 0.536057 0.175342
O O16 0.000000 0.500000 0.500000
O O17 0.508735 0.985125 0.320696
O O18 0.500000 0.000000 0.000000
#
# Coordination Sequence:
#
# PCOD9001329 Si02
#       8
#     2   2   2   2   2   2   2   2
#     4  10  23  40  68  95 134 183 223 269 344 405
#     4  10  22  37  66 101 135 170 222 288 341 392
#     4  10  21  34  65  97 129 167 227 281 328 380
#     4  10  22  36  62  97 138 173 218 276 348 395
#     4  10  22  38  65  96 133 175 228 275 339 411
#     4  10  22  38  65  99 135 172 220 278 349 395
#     4  10  23  43  68  91 137 188 226 265 347 413
#     4  10  21  38  67  98 136 169 227 275 338 394
#
# _framework density 26.417842
#
# number of rings (size 3 to 8) (size 9 to 14) (size 15 to 20)
#    0.000    2.000    0.000    3.000   17.500    3.500 
#    0.000    1.250    0.000    0.000    0.000    0.000 
#    0.000    0.000    0.000    0.000    0.000    0.000 
#
# Total GULP energy -89194.029453 kJ/mol
# GULP energy per Si atom -5574.626841 kJ/mol
# Density = 2.635771 g / cm^3
# Si number density = 26.417842 Si / 1000 Ang^3
#
#
#
# Elastic Constant Matrix: (Units=GPa)
#
#
# Indices 1 2 3 4 5 6 
#
# 1 109.8441 30.9921 43.8858 13.5547 29.4558 -1.3038
# 2 30.9921 160.1505 58.4023 21.7889 10.8261 -9.9157
# 3 43.8858 58.4023 102.5910 27.2332 2.5699 6.4693
# 4 13.5547 21.7889 27.2332 48.1773 5.4102 12.6597
# 5 29.4558 10.8261 2.5699 5.4102 39.4060 7.7593
# 6 -1.3038 -9.9157 6.4693 12.6597 7.7593 63.8039
#
#
#
# Elastic Compliance Matrix: (Units=1/GPa)
#
#
# Indices 1 2 3 4 5 6 
#
# 1 0.014476 0.000379 -0.006257 -0.000091 -0.010965 0.002341
# 2 0.000379 0.008390 -0.004587 -0.001658 -0.002537 0.002414
# 3 -0.006257 -0.004587 0.016509 -0.005615 0.006052 -0.002136
# 4 -0.000091 -0.001658 -0.005615 0.026130 -0.001781 -0.004658
# 5 -0.010965 -0.002537 0.006052 -0.001781 0.035134 -0.005151
# 6 0.002341 0.002414 -0.002136 -0.004658 -0.005151 0.017863
#
#
# Mechanical properties :
#
#
# Convention : Reuss Voigt Hill
#
# Bulk Modulus (GPa) = 54.21477 71.01624 62.61551
# Shear Modulus (GPa) = 34.34499 46.23116 40.28808
#
# Velocity S-wave (km/s) = 3.60956 4.18784 3.90940
# Velocity P-wave (km/s) = 6.15942 7.09396 6.64314
#
# Compressibility (1/GPa) = 0.01844516
#
# Stress axis : x y z
#
# Youngs Moduli (GPa) = 69.07878 119.18914 60.57319
#
# Poissons Ratio (x) = -0.04516 0.37901
# Poissons Ratio (y) = -0.02617 0.27784
# Poissons Ratio (z) = 0.43222 0.54671
#
# Static dielectric constant tensor:
#      x y z
#    x 2.170670 -0.005930 -0.145480 
#    y -0.005930 2.068850 -0.017160 
#    z -0.145480 -0.017160 2.446010 
# 
# From -- ./inp_files/403111.got.cif
#   From: 2010.05.17/outbox.cif.g08.bks.cpg/sg2_202_cif.got.tgz:403111.got - 2010.06.03 11:33:40.
