data_PCOD9001934
_publ_section_title
;
Structure prediction by ZEFSAII (Michael W. Deem and Ramdas Pophale) SiO2 
 PCOD9001934
Probable space group: P -1
;
_chemical_formula_sum "Si O2"
_cell_formula_units_Z 16
_cell_length_a 11.405165
_cell_length_b 14.593707
_cell_length_c 14.944591
_cell_angle_alpha 42.375537
_cell_angle_beta 30.469917
_cell_angle_gamma 41.939647
_cell_volume 807.283696
_symmetry_space_group_name_H-M "P -1"
_symmetry_group_IT_number 2
_symmetry_cell_setting 'triclinic'
loop_
_space_group_symop_operation_xyz
x,y,z
-x,-y,-z
loop_
_atom_site_type_symbol
_atom_site_label
_atom_site_fract_x
_atom_site_fract_y
_atom_site_fract_z
Si Si1 0.232879 0.495395 0.481573
Si Si2 0.148388 0.664967 0.101574
Si Si3 0.515345 0.550637 0.096163
Si Si4 0.095958 0.091606 0.212783
Si Si5 0.612910 0.267435 0.507746
Si Si6 0.385260 0.178925 0.116686
Si Si7 0.776817 0.898609 0.080340
Si Si8 0.077769 0.778174 0.487740
O O1 0.342014 0.491630 0.314033
O O2 0.455042 0.413256 0.460071
O O3 0.116392 0.658027 0.473847
O O4 0.037421 0.411631 0.680507
O O5 0.362647 0.642861 0.047946
O O6 0.995985 0.823974 0.057112
O O7 0.268890 0.575013 0.999213
O O8 0.606994 0.660760 0.014592
O O9 0.291849 0.122059 0.129367
O O10 0.833634 0.181297 0.360387
O O11 0.118377 0.924299 0.323253
O O12 0.132643 0.133393 0.057819
O O13 0.432929 0.174091 0.710346
O O14 0.735567 0.284202 0.508691
O O15 0.188472 0.183242 0.320156
O O16 0.644736 0.067678 0.051682
#
# Coordination Sequence:
#
# PCOD9001934 Si02
#       8
#     2   2   2   2   2   2   2   2
#     4  11  22  38  62  86 112 153 195 230 289 342
#     4  10  24  43  60  84 114 147 198 246 282 331
#     4  11  23  42  63  81 113 154 193 243 286 332
#     4  11  21  37  59  87 121 153 187 224 288 352
#     4  10  21  36  54  87 124 148 183 236 276 340
#     4  11  21  38  59  87 119 153 190 231 283 344
#     4  11  21  37  62  86 115 153 189 235 286 336
#     4  11  20  38  57  87 123 155 182 229 288 344
#
# _framework density 19.81955
#
# number of rings (size 3 to 8) (size 9 to 14) (size 15 to 20)
#    0.000    1.250    3.750    3.375    1.750    0.500 
#    0.000    1.875    0.000    1.500    0.000    0.000 
#    0.000    0.000    0.000    0.000    0.000    0.000 
#
# Total GULP energy -89429.621729 kJ/mol
# GULP energy per Si atom -5589.351358 kJ/mol
# Density = 1.977444 g / cm^3
# Si number density = 19.819550 Si / 1000 Ang^3
#
#
#
# Elastic Constant Matrix: (Units=GPa)
#
#
# Indices 1 2 3 4 5 6 
#
# 1 16.6977 4.1406 15.7052 -11.5232 5.8840 -21.6271
# 2 4.1406 51.0505 22.4165 -15.5131 4.9135 -14.9950
# 3 15.7052 22.4165 45.5126 37.6082 10.7219 22.4219
# 4 -11.5232 -15.5131 37.6082 -9.5113 10.6991 -27.4446
# 5 5.8840 4.9135 10.7219 10.6991 19.8452 9.3507
# 6 -21.6271 -14.9950 22.4219 -27.4446 9.3507 11.9808
#
#
#
# Elastic Compliance Matrix: (Units=1/GPa)
#
#
# Indices 1 2 3 4 5 6 
#
# 1 0.047038 -0.012603 0.008052 -0.023239 -0.004809 0.004587
# 2 -0.012603 0.018697 -0.001299 -0.002340 0.003391 -0.004924
# 3 0.008052 -0.001299 0.015124 0.004962 -0.017420 0.009567
# 4 -0.023239 -0.002340 0.004962 0.016281 0.006263 -0.021758
# 5 -0.004809 0.003391 -0.017420 0.006263 0.058489 -0.003137
# 6 0.004587 -0.004924 0.009567 -0.021758 -0.003137 0.020285
#
#
# Mechanical properties :
#
#
# Convention : Reuss Voigt Hill
#
# Bulk Modulus (GPa) = 14.45944 21.97615 18.21780
# Shear Modulus (GPa) = 23.73408 9.19619 16.46514
#
# Velocity S-wave (km/s) = 3.46426 2.15639 2.88540
# Velocity P-wave (km/s) = 4.82834 4.16080 4.50694
#
# Compressibility (1/GPa) = 0.06915897
#
# Stress axis : x y z
#
# Youngs Moduli (GPa) = 21.25936 53.48415 66.12209
#
# Poissons Ratio (x) = 0.67404 -0.53241
# Poissons Ratio (y) = 0.26792 0.08591
# Poissons Ratio (z) = -0.17118 0.06949
#
# Static dielectric constant tensor:
#      x y z
#    x 1.685190 -0.011370 -0.002920 
#    y -0.011370 1.685980 0.012190 
#    z -0.002920 0.012190 1.684300 
# 
# From -- ./inp_files/187223.got.cif
#   From: 2010.05.17/outbox.cif.g08.bks.cpg/sg2_94_cif.got.tgz:187223.got - 2010.06.03 11:33:40.
