data_PCOD9001412
_publ_section_title
;
Structure prediction by ZEFSAII (Michael W. Deem and Ramdas Pophale) SiO2 
 PCOD9001412
Probable space group: P -1
;
_chemical_formula_sum "Si O2"
_cell_formula_units_Z 14
_cell_length_a 22.946212
_cell_length_b 5.401886
_cell_length_c 27.733780
_cell_angle_alpha 72.492327
_cell_angle_beta 168.474348
_cell_angle_gamma 105.991155
_cell_volume 651.692085
_symmetry_space_group_name_H-M "P -1"
_symmetry_group_IT_number 2
_symmetry_cell_setting 'triclinic'
loop_
_space_group_symop_operation_xyz
x,y,z
-x,-y,-z
loop_
_atom_site_type_symbol
_atom_site_label
_atom_site_fract_x
_atom_site_fract_y
_atom_site_fract_z
Si Si1 0.702903 0.129621 0.226225
Si Si2 0.536300 0.136332 0.656749
Si Si3 0.221324 0.846033 0.354070
Si Si4 0.664555 0.335871 0.074244
Si Si5 0.188484 0.361539 0.046793
Si Si6 0.254412 0.435944 0.492892
Si Si7 0.289724 0.419239 0.291777
O O1 0.546151 0.390454 0.109784
O O2 0.492875 0.896117 0.064859
O O3 0.745725 0.232733 0.200245
O O4 0.000000 0.000000 0.500000
O O5 0.404549 0.189842 0.599767
O O6 0.714893 0.353412 0.765186
O O7 0.255122 0.109137 0.395601
O O8 0.740053 0.870072 0.843270
O O9 0.206113 0.642244 0.397620
O O10 0.529098 0.815169 0.575613
O O11 0.984313 0.764517 0.128778
O O12 0.959464 0.388092 0.282804
O O13 0.496477 0.463766 0.276748
O O14 0.006721 0.586397 0.918372
O O15 0.500000 0.500000 0.500000
#
# Coordination Sequence:
#
# PCOD9001412 Si02
#       7
#     2   2   2   2   2   2   2
#     4  10  22  44  72 104 128 174 214 260 316 386
#     4  10  21  35  55  81 115 153 205 253 316 362
#     4   9  21  38  55  80 116 156 207 258 312 367
#     4  10  23  42  70  98 143 164 215 267 314 385
#     4  10  21  36  56  82 111 157 210 250 314 380
#     4  10  23  39  56  86 126 160 191 257 317 372
#     4   9  19  35  55  77 111 153 205 264 309 359
#
# _framework density 21.48254
#
# number of rings (size 3 to 8) (size 9 to 14) (size 15 to 20)
#    0.000    2.286    0.000    0.857    4.000   13.143 
#    2.571    0.000    0.000    0.000    0.000    0.000 
#    0.000    0.000    0.000    0.000    0.000    0.000 
#
# Total GULP energy -78062.616430 kJ/mol
# GULP energy per Si atom -5575.901174 kJ/mol
# Density = 2.143364 g / cm^3
# Si number density = 21.482540 Si / 1000 Ang^3
#
#
#
# Elastic Constant Matrix: (Units=GPa)
#
#
# Indices 1 2 3 4 5 6 
#
# 1 60.0885 30.2236 58.8201 11.7845 -4.0014 -1.9166
# 2 30.2236 90.6328 49.6765 11.0035 6.4723 -2.9514
# 3 58.8201 49.6765 141.4336 17.3998 0.8072 7.3665
# 4 11.7845 11.0035 17.3998 28.0351 0.0139 -3.8134
# 5 -4.0014 6.4723 0.8072 0.0139 50.7558 11.1970
# 6 -1.9166 -2.9514 7.3665 -3.8134 11.1970 30.3804
#
#
#
# Elastic Compliance Matrix: (Units=1/GPa)
#
#
# Indices 1 2 3 4 5 6 
#
# 1 0.030264 -0.003672 -0.010952 -0.004103 0.002411 0.002804
# 2 -0.003672 0.014701 -0.003571 -0.001618 -0.002740 0.002869
# 3 -0.010952 -0.003571 0.013504 -0.003037 0.000450 -0.004859
# 4 -0.004103 -0.001618 -0.003037 0.040723 -0.001391 0.005945
# 5 0.002411 -0.002740 0.000450 -0.001391 0.022121 -0.008551
# 6 0.002804 0.002869 -0.004859 0.005945 -0.008551 0.038448
#
#
# Mechanical properties :
#
#
# Convention : Reuss Voigt Hill
#
# Bulk Modulus (GPa) = 45.29221 63.28839 54.29030
# Shear Modulus (GPa) = 24.56870 32.06325 28.31598
#
# Velocity S-wave (km/s) = 3.38547 3.86751 3.63449
# Velocity P-wave (km/s) = 6.03415 7.03334 6.55282
#
# Compressibility (1/GPa) = 0.02207885
#
# Stress axis : x y z
#
# Youngs Moduli (GPa) = 33.04203 68.02265 74.05487
#
# Poissons Ratio (x) = 0.24981 0.81103
# Poissons Ratio (y) = 0.12134 0.26444
# Poissons Ratio (z) = 0.36187 0.24290
#
# Static dielectric constant tensor:
#      x y z
#    x 1.771460 -0.046510 -0.050550 
#    y -0.046510 1.871990 -0.052150 
#    z -0.050550 -0.052150 1.841540 
# 
# From -- ./inp_files/52788.got.cif
#   From: 2010.05.17/outbox.cif.g08.bks.cpg/sg2_27_cif.got.tgz:52788.got - 2010.06.03 11:33:40.
