data_PCOD9001975
_publ_section_title
;
Structure prediction by ZEFSAII (Michael W. Deem and Ramdas Pophale) SiO2 
 PCOD9001975
Probable space group: P -1
;
_chemical_formula_sum "Si O2"
_cell_formula_units_Z 14
_cell_length_a 11.180749
_cell_length_b 11.952056
_cell_length_c 11.761407
_cell_angle_alpha 139.441100
_cell_angle_beta 49.050522
_cell_angle_gamma 141.332386
_cell_volume 631.001540
_symmetry_space_group_name_H-M "P -1"
_symmetry_group_IT_number 2
_symmetry_cell_setting 'triclinic'
loop_
_space_group_symop_operation_xyz
x,y,z
-x,-y,-z
loop_
_atom_site_type_symbol
_atom_site_label
_atom_site_fract_x
_atom_site_fract_y
_atom_site_fract_z
Si Si1 0.775216 0.802725 0.860926
Si Si2 0.242591 0.347781 0.632649
Si Si3 0.597104 0.740902 0.153290
Si Si4 0.419054 0.790267 0.960438
Si Si5 0.541114 0.346494 0.586185
Si Si6 0.026262 0.949711 0.616894
Si Si7 0.366507 0.901163 0.317450
O O1 0.720996 0.566839 0.691880
O O2 0.964259 0.955623 0.787506
O O3 0.761112 0.852282 0.039145
O O4 0.598705 0.794151 0.903292
O O5 0.441189 0.374790 0.562855
O O6 0.162387 0.245315 0.481400
O O7 0.283044 0.572232 0.808343
O O8 0.090674 0.159089 0.667773
O O9 0.612635 0.741777 0.280122
O O10 0.442477 0.795168 0.266332
O O11 0.500000 0.500000 0.000000
O O12 0.320721 0.804271 0.145682
O O13 0.500000 0.000000 0.000000
O O14 0.545424 0.149888 0.398575
O O15 0.179448 0.889541 0.464651
#
# Coordination Sequence:
#
# PCOD9001975 Si02
#       7
#     2   2   2   2   2   2   2
#     4   9  20  36  58  83 111 150 194 235 279 334
#     4   9  21  37  56  82 121 154 180 230 294 338
#     4   9  18  38  60  81 111 150 196 238 278 331
#     4  10  22  35  55  83 116 152 196 229 275 342
#     4   9  18  35  62  82 109 152 198 235 274 329
#     4  10  21  38  57  84 121 150 187 229 295 338
#     4  10  21  36  55  87 111 149 190 234 287 336
#
# _framework density 22.186948999999998
#
# number of rings (size 3 to 8) (size 9 to 14) (size 15 to 20)
#    0.000    2.571    0.000    1.286    8.000    1.714 
#    0.000    5.714    0.000    0.000    0.000    0.000 
#    0.000    0.000    0.000    0.000    0.000    0.000 
#
# Total GULP energy -78049.156660 kJ/mol
# GULP energy per Si atom -5574.939761 kJ/mol
# Density = 2.213645 g / cm^3
# Si number density = 22.186949 Si / 1000 Ang^3
#
#
#
# Elastic Constant Matrix: (Units=GPa)
#
#
# Indices 1 2 3 4 5 6 
#
# 1 70.6781 8.5382 29.5022 4.5866 10.2812 -12.5634
# 2 8.5382 91.6061 27.4722 -5.3672 -6.3449 -6.9881
# 3 29.5022 27.4722 90.8274 9.2317 5.0876 -9.0127
# 4 4.5866 -5.3672 9.2317 57.9419 -1.1756 -2.6403
# 5 10.2812 -6.3449 5.0876 -1.1756 34.5105 2.0298
# 6 -12.5634 -6.9881 -9.0127 -2.6403 2.0298 23.1671
#
#
#
# Elastic Compliance Matrix: (Units=1/GPa)
#
#
# Indices 1 2 3 4 5 6 
#
# 1 0.018481 -0.000021 -0.004806 -0.000417 -0.005319 0.008564
# 2 -0.000021 0.012579 -0.003934 0.001953 0.002834 0.002227
# 3 -0.004806 -0.003934 0.014235 -0.002209 -0.001561 0.001629
# 4 -0.000417 0.001953 -0.002209 0.017917 0.001335 0.001428
# 5 -0.005319 0.002834 -0.001561 0.001335 0.031667 -0.005259
# 6 0.008564 0.002227 0.001629 0.001428 -0.005259 0.049738
#
#
# Mechanical properties :
#
#
# Convention : Reuss Voigt Hill
#
# Bulk Modulus (GPa) = 36.00810 42.68185 39.34498
# Shear Modulus (GPa) = 29.17228 35.63051 32.40140
#
# Velocity S-wave (km/s) = 3.63001 4.01174 3.82564
# Velocity P-wave (km/s) = 5.81669 6.38263 6.10622
#
# Compressibility (1/GPa) = 0.02777153
#
# Stress axis : x y z
#
# Youngs Moduli (GPa) = 54.11108 79.49978 70.25058
#
# Poissons Ratio (x) = 0.00163 0.33766
# Poissons Ratio (y) = 0.00111 0.27638
# Poissons Ratio (z) = 0.26008 0.31277
#
# Static dielectric constant tensor:
#      x y z
#    x 1.838050 0.026640 0.027150 
#    y 0.026640 1.899510 0.008610 
#    z 0.027150 0.008610 1.839500 
# 
# From -- ./inp_files/278792.got.cif
#   From: 2010.05.17/outbox.cif.g08.bks.cpg/sg2_140_cif.got.tgz:278792.got - 2010.06.03 11:33:40.
