data_PCOD9001368
_publ_section_title
;
Structure prediction by ZEFSAII (Michael W. Deem and Ramdas Pophale) SiO2 
 PCOD9001368
Probable space group: P -1
;
_chemical_formula_sum "Si O2"
_cell_formula_units_Z 16
_cell_length_a 8.570198
_cell_length_b 28.935008
_cell_length_c 10.516675
_cell_angle_alpha 32.930807
_cell_angle_beta 79.528532
_cell_angle_gamma 50.772141
_cell_volume 614.383324
_symmetry_space_group_name_H-M "P -1"
_symmetry_group_IT_number 2
_symmetry_cell_setting 'triclinic'
loop_
_space_group_symop_operation_xyz
x,y,z
-x,-y,-z
loop_
_atom_site_type_symbol
_atom_site_label
_atom_site_fract_x
_atom_site_fract_y
_atom_site_fract_z
Si Si1 0.954109 0.975686 0.781171
Si Si2 0.253561 0.457296 0.413793
Si Si3 0.012898 0.911207 0.292475
Si Si4 0.155003 0.083975 0.257300
Si Si5 0.419807 0.532933 0.697854
Si Si6 0.902506 0.837963 0.281600
Si Si7 0.815551 0.505044 0.357122
Si Si8 0.464039 0.937151 0.801350
O O1 0.204897 0.967069 0.464178
O O2 0.828044 0.119607 0.536291
O O3 0.386441 0.760360 0.197129
O O4 0.845419 0.948262 0.947274
O O5 0.250913 0.556476 0.131449
O O6 0.275468 0.450099 0.581914
O O7 0.930583 0.548288 0.210836
O O8 0.129820 0.771074 0.521267
O O9 0.463839 0.997560 0.359261
O O10 0.000000 0.000000 0.000000
O O11 0.147046 0.083566 0.408566
O O12 0.811529 0.294966 0.762368
O O13 0.594813 0.548430 0.190947
O O14 0.161225 0.654546 0.580772
O O15 0.367384 0.940188 0.940125
O O16 0.500000 0.000000 0.000000
O O17 0.199322 0.270326 0.833329
#
# Coordination Sequence:
#
# PCOD9001368 Si02
#       8
#     2   2   2   2   2   2   2   2
#     4   9  17  29  41  64  96 113 145 188 217 275
#     4   9  17  28  42  65  91 121 149 181 224 281
#     4  10  18  27  41  62  91 121 144 178 225 267
#     4   8  17  29  44  63  89 124 146 179 230 271
#     4   9  18  31  44  65  97 115 148 191 222 275
#     4   9  16  26  42  60  86 120 147 178 219 269
#     4  10  17  27  46  63  91 126 143 182 232 269
#     4  10  17  29  45  64  93 121 148 183 222 277
#
# _framework density 26.042369999999998
#
# number of rings (size 3 to 8) (size 9 to 14) (size 15 to 20)
#    0.000    3.000    1.250    2.625    0.000    0.500 
#    0.000    0.000    0.000    0.000    0.000    0.000 
#    0.000  298.000    0.000    0.750    0.000    0.000 
#
# Total GULP energy -89115.129233 kJ/mol
# GULP energy per Si atom -5569.695577 kJ/mol
# Density = 2.598310 g / cm^3
# Si number density = 26.042370 Si / 1000 Ang^3
#
#
#
# Elastic Constant Matrix: (Units=GPa)
#
#
# Indices 1 2 3 4 5 6 
#
# 1 226.5831 125.2682 44.7273 -7.7418 1.7504 19.2946
# 2 125.2682 103.1373 10.9127 -47.3270 9.1876 7.9488
# 3 44.7273 10.9127 43.7186 -54.6171 -11.2885 2.3799
# 4 -7.7418 -47.3270 -54.6171 14.0928 7.5536 9.3184
# 5 1.7504 9.1876 -11.2885 7.5536 39.1499 -1.6974
# 6 19.2946 7.9488 2.3799 9.3184 -1.6974 75.0711
#
#
#
# Elastic Compliance Matrix: (Units=1/GPa)
#
#
# Indices 1 2 3 4 5 6 
#
# 1 0.006452 -0.004546 0.004761 0.007980 0.000511 -0.002307
# 2 -0.004546 0.011945 -0.012762 -0.010625 -0.004164 0.001533
# 3 0.004761 -0.012762 0.008714 -0.011487 0.007574 0.001448
# 4 0.007980 -0.010625 -0.011487 -0.004727 -0.000263 0.000019
# 5 0.000511 -0.004164 0.007574 -0.000263 0.028764 0.000752
# 6 -0.002307 0.001533 0.001448 0.000019 0.000752 0.013720
#
#
# Mechanical properties :
#
#
# Convention : Reuss Voigt Hill
#
# Bulk Modulus (GPa) = 495.70133 81.69503 288.69818
# Shear Modulus (GPa) = 55.16583 38.49816 46.83200
#
# Velocity S-wave (km/s) = 4.60750 3.84902 4.24524
# Velocity P-wave (km/s) = 14.80077 7.15482 11.62442
#
# Compressibility (1/GPa) = 0.00201734
#
# Stress axis : x y z
#
# Youngs Moduli (GPa) = 154.98841 83.71516 114.75150
#
# Poissons Ratio (x) = 0.38058 -0.54634
# Poissons Ratio (y) = 0.70460 1.46448
# Poissons Ratio (z) = -0.73792 1.06839
#
# Static dielectric constant tensor:
#      x y z
#    x 2.164630 0.072900 0.069220 
#    y 0.072900 2.122430 0.100680 
#    z 0.069220 0.100680 2.129590 
# 
# From -- ./inp_files/406250.got.cif
#   From: 2010.05.17/outbox.cif.g08.bks.cpg/sg2_204_cif.got.tgz:406250.got - 2010.06.03 11:33:40.
