data_PCOD9001970
_publ_section_title
;
Structure prediction by ZEFSAII (Michael W. Deem and Ramdas Pophale) SiO2 
 PCOD9001970
Probable space group: P -1
;
_chemical_formula_sum "Si O2"
_cell_formula_units_Z 14
_cell_length_a 25.133065
_cell_length_b 7.322548
_cell_length_c 22.559490
_cell_angle_alpha 67.018870
_cell_angle_beta 169.389038
_cell_angle_gamma 113.683315
_cell_volume 699.886823
_symmetry_space_group_name_H-M "P -1"
_symmetry_group_IT_number 2
_symmetry_cell_setting 'triclinic'
loop_
_space_group_symop_operation_xyz
x,y,z
-x,-y,-z
loop_
_atom_site_type_symbol
_atom_site_label
_atom_site_fract_x
_atom_site_fract_y
_atom_site_fract_z
Si Si1 0.208651 0.493171 0.060978
Si Si2 0.957937 0.538488 0.529698
Si Si3 0.594285 0.913737 0.292807
Si Si4 0.172100 0.039294 0.122545
Si Si5 0.382677 0.301054 0.954558
Si Si6 0.993949 0.656220 0.689664
Si Si7 0.824534 0.762105 0.679747
O O1 0.201645 0.265670 0.101964
O O2 0.523571 0.625965 0.384154
O O3 0.034220 0.502103 0.806358
O O4 0.030421 0.607911 0.898492
O O5 0.870437 0.720629 0.370109
O O6 0.247514 0.453176 0.833566
O O7 0.937459 0.573372 0.572635
O O8 0.680839 0.375236 0.237478
O O9 0.772225 0.913941 0.548918
O O10 0.773992 0.809088 0.452551
O O11 0.309826 0.770818 0.014428
O O12 0.473492 0.114046 0.113462
O O13 0.500000 0.000000 0.500000
O O14 0.000000 0.000000 0.000000
O O15 0.993480 0.890247 0.899677
#
# Coordination Sequence:
#
# PCOD9001970 Si02
#       7
#     2   2   2   2   2   2   2
#     4  10  23  43  63  92 129 161 204 261 307 363
#     4  10  21  36  55  85 120 157 199 247 302 353
#     4  10  21  38  59  86 116 157 204 246 304 358
#     4  12  26  42  66  98 121 164 211 240 316 386
#     4  10  21  36  55  85 120 157 199 247 302 353
#     4  10  21  38  59  86 116 157 204 246 304 358
#     4  10  23  43  63  92 129 161 204 261 307 363
#
# _framework density 20.003233000000002
#
# number of rings (size 3 to 8) (size 9 to 14) (size 15 to 20)
#    0.000    1.714    0.000    3.429    2.000    4.571 
#    2.571    0.000    0.000    0.000    0.000    0.000 
#    0.000    0.000    0.000    0.000    0.000    0.000 
#
# Total GULP energy -78024.844019 kJ/mol
# GULP energy per Si atom -5573.203144 kJ/mol
# Density = 1.995770 g / cm^3
# Si number density = 20.003233 Si / 1000 Ang^3
#
#
#
# Elastic Constant Matrix: (Units=GPa)
#
#
# Indices 1 2 3 4 5 6 
#
# 1 142.1302 75.3764 67.5311 -21.5223 -7.0219 -15.4812
# 2 75.3764 148.0285 63.9158 -51.3870 -14.3109 46.1346
# 3 67.5311 63.9158 120.4096 -25.7974 8.5172 -11.3700
# 4 -21.5223 -51.3870 -25.7974 45.1267 -3.4379 -20.5119
# 5 -7.0219 -14.3109 8.5172 -3.4379 51.7917 6.6527
# 6 -15.4812 46.1346 -11.3700 -20.5119 6.6527 52.3172
#
#
#
# Elastic Compliance Matrix: (Units=1/GPa)
#
#
# Indices 1 2 3 4 5 6 
#
# 1 0.016515 -0.015481 0.000853 -0.001021 -0.004677 0.018918
# 2 -0.015481 0.038962 -0.014310 0.012170 0.016892 -0.039425
# 3 0.000853 -0.014310 0.018430 0.002617 -0.009145 0.019066
# 4 -0.001021 0.012170 0.002617 0.039377 0.004848 0.004357
# 5 -0.004677 0.016892 -0.009145 0.004848 0.027722 -0.019892
# 6 0.018918 -0.039425 0.019066 0.004357 -0.019892 0.067859
#
#
# Mechanical properties :
#
#
# Convention : Reuss Voigt Hill
#
# Bulk Modulus (GPa) = 62.37007 91.57942 76.97474
# Shear Modulus (GPa) = 18.37659 43.43011 30.90335
#
# Velocity S-wave (km/s) = 3.03426 4.66462 3.93481
# Velocity P-wave (km/s) = 6.59722 8.65409 7.69469
#
# Compressibility (1/GPa) = 0.01603333
#
# Stress axis : x y z
#
# Youngs Moduli (GPa) = 60.55056 25.66603 54.25845
#
# Poissons Ratio (x) = 0.39732 -0.04630
# Poissons Ratio (y) = 0.93736 0.77643
# Poissons Ratio (z) = -0.05167 0.36728
#
# Static dielectric constant tensor:
#      x y z
#    x 1.762260 0.033250 -0.070600 
#    y 0.033250 1.714010 -0.002680 
#    z -0.070600 -0.002680 1.742050 
# 
# From -- ./inp_files/9288.got.cif
#   From: 2010.05.17/outbox.cif.g08.bks.cpg/sg2_5_cif.got.tgz:9288.got - 2010.06.03 11:33:40.
