data_PCOD9001911
_publ_section_title
;
Structure prediction by ZEFSAII (Michael W. Deem and Ramdas Pophale) SiO2 
 PCOD9001911
Probable space group: P -1
;
_chemical_formula_sum "Si O2"
_cell_formula_units_Z 16
_cell_length_a 14.202781
_cell_length_b 8.658677
_cell_length_c 15.535910
_cell_angle_alpha 60.957491
_cell_angle_beta 60.877560
_cell_angle_gamma 34.792067
_cell_volume 938.141231
_symmetry_space_group_name_H-M "P -1"
_symmetry_group_IT_number 2
_symmetry_cell_setting 'triclinic'
loop_
_space_group_symop_operation_xyz
x,y,z
-x,-y,-z
loop_
_atom_site_type_symbol
_atom_site_label
_atom_site_fract_x
_atom_site_fract_y
_atom_site_fract_z
Si Si1 0.651929 0.796766 0.422548
Si Si2 0.274489 0.914502 0.766764
Si Si3 0.862464 0.848441 0.879267
Si Si4 0.799603 0.791044 0.111499
Si Si5 0.382756 0.320580 0.712951
Si Si6 0.057812 0.953252 0.732015
Si Si7 0.393935 0.711827 0.267869
Si Si8 0.874017 0.237600 0.562491
O O1 0.595512 0.757815 0.374401
O O2 0.800036 0.507763 0.482150
O O3 0.500000 0.000000 0.500000
O O4 0.703218 0.925374 0.333076
O O5 0.124752 0.999974 0.762471
O O6 0.445419 0.587989 0.765245
O O7 0.236378 0.011952 0.856036
O O8 0.015629 0.527391 0.870012
O O9 0.943038 0.942500 0.825277
O O10 0.718641 0.048631 0.818085
O O11 0.796753 0.864169 0.995859
O O12 0.668130 0.796575 0.183839
O O13 0.221775 0.649636 0.703595
O O14 0.534410 0.235406 0.711299
O O15 0.962851 0.153985 0.637895
O O16 0.276378 0.712990 0.365448
O O17 0.000000 0.000000 0.500000
#
# Coordination Sequence:
#
# PCOD9001911 Si02
#       8
#     2   2   2   2   2   2   2   2
#     4  11  21  36  53  79 110 139 175 226 264 303
#     4  10  21  36  54  79 110 138 177 222 264 307
#     4   9  19  37  58  79 108 140 176 213 266 322
#     4   9  19  37  58  80 107 140 172 221 267 309
#     4   9  19  36  56  76 108 142 176 215 265 315
#     4   9  19  36  55  78 106 142 179 215 259 320
#     4  10  21  36  55  80 105 141 181 216 259 324
#     4  11  21  36  57  77 106 145 181 214 263 319
#
# _framework density 17.055
#
# number of rings (size 3 to 8) (size 9 to 14) (size 15 to 20)
#    0.000    2.250    2.500    0.000    1.750    3.500 
#    2.250    0.000    0.000    0.000    0.000    0.000 
#    0.000    0.000    0.000    0.000    0.000    0.000 
#
# Total GULP energy -89233.354491 kJ/mol
# GULP energy per Si atom -5577.084656 kJ/mol
# Density = 1.701618 g / cm^3
# Si number density = 17.055000 Si / 1000 Ang^3
#
#
#
# Elastic Constant Matrix: (Units=GPa)
#
#
# Indices 1 2 3 4 5 6 
#
# 1 114.1833 20.7659 17.5265 -1.4989 11.7234 -5.5687
# 2 20.7659 50.2595 18.4346 -7.8534 2.7210 -0.4843
# 3 17.5265 18.4346 68.1535 -4.3720 6.2321 -4.6507
# 4 -1.4989 -7.8534 -4.3720 34.1044 -1.6358 6.4824
# 5 11.7234 2.7210 6.2321 -1.6358 7.1668 1.6150
# 6 -5.5687 -0.4843 -4.6507 6.4824 1.6150 27.1239
#
#
#
# Elastic Compliance Matrix: (Units=1/GPa)
#
#
# Indices 1 2 3 4 5 6 
#
# 1 0.011587 -0.004044 -0.000038 -0.002069 -0.018738 0.003910
# 2 -0.004044 0.024273 -0.005773 0.005439 0.004325 -0.002944
# 3 -0.000038 -0.005773 0.017777 -0.000473 -0.014190 0.003895
# 4 -0.002069 0.005439 -0.000473 0.032646 0.011183 -0.008877
# 5 -0.018738 0.004325 -0.014190 0.011183 0.187957 -0.020067
# 6 0.003910 -0.002944 0.003895 -0.008877 -0.020067 0.041602
#
#
# Mechanical properties :
#
#
# Convention : Reuss Voigt Hill
#
# Bulk Modulus (GPa) = 29.47641 38.45003 33.96322
# Shear Modulus (GPa) = 14.41500 25.40364 19.90932
#
# Velocity S-wave (km/s) = 2.91040 3.86361 3.42037
# Velocity P-wave (km/s) = 5.34926 6.51897 5.96286
#
# Compressibility (1/GPa) = 0.03392543
#
# Stress axis : x y z
#
# Youngs Moduli (GPa) = 86.30618 41.19886 56.25225
#
# Poissons Ratio (x) = 0.16663 0.00214
# Poissons Ratio (y) = 0.34906 0.32473
# Poissons Ratio (z) = 0.00329 0.23783
#
# Static dielectric constant tensor:
#      x y z
#    x 1.562380 -0.001740 -0.007800 
#    y -0.001740 1.561270 0.005130 
#    z -0.007800 0.005130 1.560010 
# 
# From -- ./inp_files/195640.got.cif
#   From: 2010.05.17/outbox.cif.g08.bks.cpg/sg2_98_cif.got.tgz:195640.got - 2010.06.03 11:33:40.
