data_PCOD9001516
_publ_section_title
;
Structure prediction by ZEFSAII (Michael W. Deem and Ramdas Pophale) SiO2 
 PCOD9001516
Probable space group: P -1
;
_chemical_formula_sum "Si O2"
_cell_formula_units_Z 14
_cell_length_a 11.960004
_cell_length_b 14.028060
_cell_length_c 8.763713
_cell_angle_alpha 47.011612
_cell_angle_beta 46.147418
_cell_angle_gamma 64.286822
_cell_volume 773.527526
_symmetry_space_group_name_H-M "P -1"
_symmetry_group_IT_number 2
_symmetry_cell_setting 'triclinic'
loop_
_space_group_symop_operation_xyz
x,y,z
-x,-y,-z
loop_
_atom_site_type_symbol
_atom_site_label
_atom_site_fract_x
_atom_site_fract_y
_atom_site_fract_z
Si Si1 0.135002 0.571462 0.503089
Si Si2 0.350878 0.406920 0.682823
Si Si3 0.219218 0.502860 0.157757
Si Si4 0.355545 0.275149 0.126755
Si Si5 0.321505 0.788733 0.214239
Si Si6 0.542252 0.992878 0.644246
Si Si7 0.398113 0.735734 0.547057
O O1 0.223321 0.487246 0.634871
O O2 0.206830 0.547895 0.294360
O O3 0.166256 0.722610 0.359736
O O4 0.954604 0.526672 0.709162
O O5 0.500000 0.500000 0.500000
O O6 0.428878 0.307657 0.603646
O O7 0.286464 0.328444 0.977569
O O8 0.304231 0.368590 0.205796
O O9 0.307273 0.615617 0.850138
O O10 0.334717 0.118992 0.333819
O O11 0.542207 0.290669 0.907392
O O12 0.328350 0.765066 0.413991
O O13 0.389317 0.934137 0.947229
O O14 0.500000 0.000000 0.500000
O O15 0.598731 0.132913 0.501873
#
# Coordination Sequence:
#
# PCOD9001516 Si02
#       7
#     2   2   2   2   2   2   2
#     4  11  22  36  55  85 120 141 194 224 288 326
#     4  11  18  35  57  88 107 144 187 241 269 327
#     4  11  23  35  57  85 114 156 175 237 278 338
#     4   9  20  36  54  85 109 142 192 222 283 320
#     4   9  19  36  56  83 110 145 185 233 265 333
#     4  10  21  35  57  86 114 147 183 234 278 333
#     4  11  20  35  60  83 114 144 188 227 285 321
#
# _framework density 18.098904000000001
#
# number of rings (size 3 to 8) (size 9 to 14) (size 15 to 20)
#    0.857    0.857    4.286    1.286    2.000    3.429 
#    0.000    0.000    3.143    4.286    0.000    0.000 
#    0.000    0.000    0.000    0.000    0.000    0.000 
#
# Total GULP energy -77976.887408 kJ/mol
# GULP energy per Si atom -5569.777672 kJ/mol
# Density = 1.805771 g / cm^3
# Si number density = 18.098904 Si / 1000 Ang^3
#
#
#
# Elastic Constant Matrix: (Units=GPa)
#
#
# Indices 1 2 3 4 5 6 
#
# 1 60.1523 12.5608 0.7286 -4.1901 1.1843 11.8531
# 2 12.5608 107.4545 23.4292 -13.6217 -4.1219 15.4334
# 3 0.7286 23.4292 39.1849 -3.9424 6.9841 1.7446
# 4 -4.1901 -13.6217 -3.9424 23.7986 5.5529 3.1195
# 5 1.1843 -4.1219 6.9841 5.5529 17.7727 -9.0318
# 6 11.8531 15.4334 1.7446 3.1195 -9.0318 16.8232
#
#
#
# Elastic Compliance Matrix: (Units=1/GPa)
#
#
# Indices 1 2 3 4 5 6 
#
# 1 0.026722 0.002921 0.007751 0.021162 -0.033132 -0.044022
# 2 0.002921 0.014671 -0.004259 0.014076 -0.011694 -0.023964
# 3 0.007751 -0.004259 0.037170 0.016963 -0.035422 -0.027571
# 4 0.021162 0.014076 0.016963 0.085348 -0.075021 -0.085684
# 5 -0.033132 -0.011694 -0.035422 -0.075021 0.164158 0.139787
# 6 -0.044022 -0.023964 -0.027571 -0.085684 0.139787 0.206237
#
#
# Mechanical properties :
#
#
# Convention : Reuss Voigt Hill
#
# Bulk Modulus (GPa) = 10.94225 31.13653 21.03939
# Shear Modulus (GPa) = 9.05890 23.01711 16.03801
#
# Velocity S-wave (km/s) = 2.23966 3.57002 2.98003
# Velocity P-wave (km/s) = 3.57030 5.85100 4.84672
#
# Compressibility (1/GPa) = 0.09138885
#
# Stress axis : x y z
#
# Youngs Moduli (GPa) = 37.42264 68.16146 26.90340
#
# Poissons Ratio (x) = -0.19909 -0.20853
# Poissons Ratio (y) = -0.10930 0.11458
# Poissons Ratio (z) = -0.29007 0.29030
#
# Static dielectric constant tensor:
#      x y z
#    x 1.616270 -0.000660 0.007310 
#    y -0.000660 1.652720 -0.010270 
#    z 0.007310 -0.010270 1.650210 
# 
# From -- ./inp_files/261418.got.cif
#   From: 2010.05.17/outbox.cif.g08.bks.cpg/sg2_131_cif.got.tgz:261418.got - 2010.06.03 11:33:40.
