data_PCOD9001211
_publ_section_title
;
Structure prediction by ZEFSAII (Michael W. Deem and Ramdas Pophale) SiO2 
 PCOD9001211
Probable space group: P -1
;
_chemical_formula_sum "Si O2"
_cell_formula_units_Z 16
_cell_length_a 11.647871
_cell_length_b 5.069329
_cell_length_c 14.938389
_cell_angle_alpha 68.098371
_cell_angle_beta 62.473211
_cell_angle_gamma 95.273066
_cell_volume 687.294074
_symmetry_space_group_name_H-M "P -1"
_symmetry_group_IT_number 2
_symmetry_cell_setting 'triclinic'
loop_
_space_group_symop_operation_xyz
x,y,z
-x,-y,-z
loop_
_atom_site_type_symbol
_atom_site_label
_atom_site_fract_x
_atom_site_fract_y
_atom_site_fract_z
Si Si1 0.641421 0.946443 0.933138
Si Si2 0.181484 0.622822 0.318153
Si Si3 0.982022 0.645336 0.755467
Si Si4 0.559133 0.230315 0.530446
Si Si5 0.751187 0.416507 0.983045
Si Si6 0.323404 0.852547 0.761178
Si Si7 0.789689 0.607161 0.298248
Si Si8 0.067902 0.175186 0.543912
O O1 0.698577 0.095644 0.797809
O O2 0.651811 0.614126 0.974654
O O3 0.500000 0.000000 0.000000
O O4 0.733359 0.140436 0.956092
O O5 0.134548 0.423395 0.270807
O O6 0.198365 0.428054 0.421833
O O7 0.047371 0.705387 0.385611
O O8 0.056367 0.395531 0.760640
O O9 0.903640 0.638554 0.877095
O O10 0.088654 0.952506 0.640079
O O11 0.500000 0.500000 0.500000
O O12 0.718817 0.399604 0.435375
O O13 0.500000 0.000000 0.500000
O O14 0.484497 0.045731 0.667059
O O15 0.720176 0.283828 0.109112
O O16 0.282911 0.584536 0.738075
O O17 0.241726 0.082907 0.736305
O O18 0.000000 0.000000 0.500000
#
# Coordination Sequence:
#
# PCOD9001211 Si02
#       8
#     2   2   2   2   2   2   2   2
#     4  11  23  42  63  87 116 153 198 240 292 354
#     4   9  19  36  59  81 118 153 188 241 302 343
#     4  10  21  34  57  85 120 154 195 237 296 342
#     4   8  16  34  54  73 105 149 185 235 283 320
#     4  11  23  40  61  84 120 157 189 241 297 346
#     4  10  21  38  57  82 119 155 195 234 289 336
#     4  10  21  35  59  85 115 153 199 239 277 346
#     4   9  17  35  57  80 111 152 187 235 298 348
#
# _framework density 23.279699999999998
#
# number of rings (size 3 to 8) (size 9 to 14) (size 15 to 20)
#    0.000    2.250    1.250    1.125    1.750    1.000 
#    2.250    2.500    0.000    0.000    0.000    0.000 
#    0.000    0.000    0.000    0.000    0.000    0.000 
#
# Total GULP energy -89235.786748 kJ/mol
# GULP energy per Si atom -5577.236672 kJ/mol
# Density = 2.322671 g / cm^3
# Si number density = 23.279700 Si / 1000 Ang^3
#
#
#
# Elastic Constant Matrix: (Units=GPa)
#
#
# Indices 1 2 3 4 5 6 
#
# 1 39.9931 3.3276 43.8399 -2.5276 -8.9888 -12.5667
# 2 3.3276 93.8632 17.4405 -0.4606 10.0194 -9.2989
# 3 43.8399 17.4405 236.9008 -0.3285 15.1012 -9.2292
# 4 -2.5276 -0.4606 -0.3285 31.8238 -6.7907 2.6108
# 5 -8.9888 10.0194 15.1012 -6.7907 24.3026 12.3428
# 6 -12.5667 -9.2989 -9.2292 2.6108 12.3428 32.8839
#
#
#
# Elastic Compliance Matrix: (Units=1/GPa)
#
#
# Indices 1 2 3 4 5 6 
#
# 1 0.041240 -0.001644 -0.008682 0.007325 0.021174 0.004329
# 2 -0.001644 0.012434 0.000314 -0.002716 -0.010267 0.007045
# 3 -0.008682 0.000314 0.006486 -0.002798 -0.009328 0.002315
# 4 0.007325 -0.002716 -0.002798 0.037149 0.020774 -0.009501
# 5 0.021174 -0.010267 -0.009328 0.020774 0.079501 -0.028919
# 6 0.004329 0.007045 0.002315 -0.009501 -0.028919 0.046315
#
#
# Mechanical properties :
#
#
# Convention : Reuss Voigt Hill
#
# Bulk Modulus (GPa) = 24.91508 55.55257 40.23382
# Shear Modulus (GPa) = 19.49103 38.21199 28.85151
#
# Velocity S-wave (km/s) = 2.89667 4.05585 3.52425
# Velocity P-wave (km/s) = 4.68117 6.77113 5.82072
#
# Compressibility (1/GPa) = 0.04013634
#
# Stress axis : x y z
#
# Youngs Moduli (GPa) = 24.24812 80.42275 154.18838
#
# Poissons Ratio (x) = 0.13224 1.33861
# Poissons Ratio (y) = 0.03987 -0.04842
# Poissons Ratio (z) = 0.21051 -0.02526
#
# Static dielectric constant tensor:
#      x y z
#    x 1.942690 0.075090 -0.080470 
#    y 0.075090 1.944610 -0.076950 
#    z -0.080470 -0.076950 1.970210 
# 
# From -- ./inp_files/77175.got.cif
#   From: 2010.05.17/outbox.cif.g08.bks.cpg/sg2_39_cif.got.tgz:77175.got - 2010.06.03 11:33:40.
