data_PCOD9001469
_publ_section_title
;
Structure prediction by ZEFSAII (Michael W. Deem and Ramdas Pophale) SiO2 
 PCOD9001469
Probable space group: P -1
;
_chemical_formula_sum "Si O2"
_cell_formula_units_Z 16
_cell_length_a 7.183883
_cell_length_b 13.396839
_cell_length_c 14.598134
_cell_angle_alpha 139.323293
_cell_angle_beta 100.418135
_cell_angle_gamma 108.164057
_cell_volume 642.974416
_symmetry_space_group_name_H-M "P -1"
_symmetry_group_IT_number 2
_symmetry_cell_setting 'triclinic'
loop_
_space_group_symop_operation_xyz
x,y,z
-x,-y,-z
loop_
_atom_site_type_symbol
_atom_site_label
_atom_site_fract_x
_atom_site_fract_y
_atom_site_fract_z
Si Si1 0.173933 0.983762 0.625552
Si Si2 0.655487 0.429851 0.938860
Si Si3 0.902179 0.526710 0.326170
Si Si4 0.620786 0.333548 0.654780
Si Si5 0.749828 0.638883 0.742436
Si Si6 0.121792 0.882981 0.335479
Si Si7 0.358118 0.906807 0.021117
Si Si8 0.636802 0.345287 0.363337
O O1 0.487750 0.198343 0.809872
O O2 0.037440 0.069119 0.692944
O O3 0.128190 0.921932 0.470775
O O4 0.998889 0.756026 0.499433
O O5 0.645009 0.397688 0.806664
O O6 0.500000 0.500000 0.000000
O O7 0.958688 0.635687 0.135913
O O8 0.661253 0.286056 0.093869
O O9 0.852797 0.456074 0.378826
O O10 0.132262 0.590811 0.326321
O O11 0.569437 0.460699 0.682127
O O12 0.412981 0.076301 0.458095
O O13 0.718894 0.511599 0.563334
O O14 0.619605 0.724243 0.759913
O O15 0.056978 0.802738 0.914919
O O16 0.500000 0.000000 0.000000
O O17 0.536565 0.128339 0.247209
#
# Coordination Sequence:
#
# PCOD9001469 Si02
#       8
#     2   2   2   2   2   2   2   2
#     4   9  18  36  57  80 110 145 186 232 280 334
#     4   9  19  36  57  82 110 143 186 233 279 333
#     4  10  21  37  55  82 119 150 183 233 288 340
#     4  10  21  35  56  84 115 147 183 234 285 340
#     4  10  21  38  62  87 112 150 199 238 281 339
#     4   9  18  35  59  80 107 146 187 233 281 333
#     4   9  20  37  57  83 118 153 187 237 289 335
#     4  10  21  39  61  84 114 153 194 239 284 337
#
# _framework density 24.884347999999999
#
# number of rings (size 3 to 8) (size 9 to 14) (size 15 to 20)
#    0.000    2.500    0.000    1.875    0.000    8.500 
#    0.000   13.750    0.000    0.000    0.000    0.000 
#    0.000    0.000    0.000    0.000    0.000    0.000 
#
# Total GULP energy -89180.666499 kJ/mol
# GULP energy per Si atom -5573.791656 kJ/mol
# Density = 2.482771 g / cm^3
# Si number density = 24.884348 Si / 1000 Ang^3
#
#
#
# Elastic Constant Matrix: (Units=GPa)
#
#
# Indices 1 2 3 4 5 6 
#
# 1 67.8843 32.2812 34.6470 9.5336 -5.9815 16.6474
# 2 32.2812 112.0734 62.3207 21.1149 5.6316 13.3962
# 3 34.6470 62.3207 157.7218 47.2224 -13.0031 10.6061
# 4 9.5336 21.1149 47.2224 58.6607 0.7660 -8.1074
# 5 -5.9815 5.6316 -13.0031 0.7660 32.1233 11.0278
# 6 16.6474 13.3962 10.6061 -8.1074 11.0278 41.9672
#
#
#
# Elastic Compliance Matrix: (Units=1/GPa)
#
#
# Indices 1 2 3 4 5 6 
#
# 1 0.020343 -0.004219 -0.000890 -0.002392 0.007270 -0.008870
# 2 -0.004219 0.012948 -0.004483 -0.000320 -0.004821 -0.000122
# 3 -0.000890 -0.004483 0.011742 -0.008439 0.007189 -0.004703
# 4 -0.002392 -0.000320 -0.008439 0.025867 -0.007947 0.010269
# 5 0.007270 -0.004821 0.007189 -0.007947 0.041813 -0.015684
# 6 -0.008870 -0.000122 -0.004703 0.010269 -0.015684 0.034680
#
#
# Mechanical properties :
#
#
# Convention : Reuss Voigt Hill
#
# Bulk Modulus (GPa) = 38.68391 66.24193 52.46292
# Shear Modulus (GPa) = 28.54001 40.44561 34.49281
#
# Velocity S-wave (km/s) = 3.39027 4.03593 3.72711
# Velocity P-wave (km/s) = 5.55918 6.95672 6.29684
#
# Compressibility (1/GPa) = 0.02585054
#
# Stress axis : x y z
#
# Youngs Moduli (GPa) = 49.15650 77.23361 85.16160
#
# Poissons Ratio (x) = 0.32586 0.07576
# Poissons Ratio (y) = 0.20740 0.38175
# Poissons Ratio (z) = 0.04373 0.34621
#
# Static dielectric constant tensor:
#      x y z
#    x 2.134670 -0.095660 0.039800 
#    y -0.095660 1.966800 0.041520 
#    z 0.039800 0.041520 2.068040 
# 
# From -- ./inp_files/504457.got.cif
#   From: 2010.05.17/outbox.cif.g08.bks.cpg/sg2_253_cif.got.tgz:504457.got - 2010.06.03 11:33:40.
