data_PCOD9001723
_publ_section_title
;
Structure prediction by ZEFSAII (Michael W. Deem and Ramdas Pophale) SiO2 
 PCOD9001723
Probable space group: P -1
;
_chemical_formula_sum "Si O2"
_cell_formula_units_Z 16
_cell_length_a 9.396223
_cell_length_b 9.730757
_cell_length_c 12.217296
_cell_angle_alpha 103.437406
_cell_angle_beta 138.364542
_cell_angle_gamma 60.386430
_cell_volume 626.822730
_symmetry_space_group_name_H-M "P -1"
_symmetry_group_IT_number 2
_symmetry_cell_setting 'triclinic'
loop_
_space_group_symop_operation_xyz
x,y,z
-x,-y,-z
loop_
_atom_site_type_symbol
_atom_site_label
_atom_site_fract_x
_atom_site_fract_y
_atom_site_fract_z
Si Si1 0.692826 0.430391 0.961369
Si Si2 0.416541 0.867743 0.415311
Si Si3 0.617223 0.205929 0.249016
Si Si4 0.899374 0.692698 0.990035
Si Si5 0.963428 0.734151 0.462747
Si Si6 0.073649 0.403476 0.355644
Si Si7 0.106796 0.060141 0.823384
Si Si8 0.426826 0.835874 0.156565
O O1 0.516712 0.611815 0.848949
O O2 0.539692 0.340851 0.886223
O O3 0.897657 0.303295 0.969943
O O4 0.864359 0.436459 0.155296
O O5 0.653365 0.700087 0.555806
O O6 0.378745 0.860101 0.262246
O O7 0.167794 0.909317 0.341575
O O8 0.500000 0.000000 0.500000
O O9 0.390252 0.215039 0.188926
O O10 0.856367 0.194680 0.441978
O O11 0.714786 0.064725 0.187996
O O12 0.906996 0.766952 0.127004
O O13 0.000000 0.500000 0.000000
O O14 0.952866 0.700792 0.579821
O O15 0.681304 0.835800 0.282673
O O16 0.062011 0.561374 0.430041
O O17 0.216033 0.965501 0.982945
#
# Coordination Sequence:
#
# PCOD9001723 Si02
#       8
#     2   2   2   2   2   2   2   2
#     4  11  21  41  67  96 125 166 211 262 309 386
#     4  11  22  34  57  97 134 160 191 253 331 381
#     4  11  23  42  65  89 127 171 216 251 311 371
#     4  10  25  43  66  87 123 173 220 259 302 370
#     4  10  21  38  60  94 130 163 198 264 315 376
#     4  10  21  35  61  94 128 163 205 255 325 368
#     4  12  23  40  68  95 125 165 214 264 311 378
#     4  11  22  37  64  98 128 157 206 262 329 365
#
# _framework density 25.525555000000001
#
# number of rings (size 3 to 8) (size 9 to 14) (size 15 to 20)
#    0.000    1.250    1.250    6.750    3.500    1.500 
#    0.000    1.250    2.750    0.000    0.000    0.000 
#    0.000    0.000    0.000    0.000    0.000    0.000 
#
# Total GULP energy -89628.936825 kJ/mol
# GULP energy per Si atom -5601.808552 kJ/mol
# Density = 2.546746 g / cm^3
# Si number density = 25.525555 Si / 1000 Ang^3
#
#
#
# Elastic Constant Matrix: (Units=GPa)
#
#
# Indices 1 2 3 4 5 6 
#
# 1 92.2251 47.5268 56.2063 -5.1830 27.2894 -26.6833
# 2 47.5268 156.0918 48.8002 6.8196 14.9094 -23.9651
# 3 56.2063 48.8002 137.7013 6.8805 34.5804 -5.4682
# 4 -5.1830 6.8196 6.8805 46.6870 0.5944 7.3279
# 5 27.2894 14.9094 34.5804 0.5944 47.0161 -12.3327
# 6 -26.6833 -23.9651 -5.4682 7.3279 -12.3327 48.6191
#
#
#
# Elastic Compliance Matrix: (Units=1/GPa)
#
#
# Indices 1 2 3 4 5 6 
#
# 1 0.019073 -0.002657 -0.005602 0.002271 -0.004274 0.007102
# 2 -0.002657 0.008229 -0.001915 -0.001688 0.001129 0.002924
# 3 -0.005602 -0.001915 0.011560 -0.001354 -0.005663 -0.003951
# 4 0.002271 -0.001688 -0.001354 0.022663 -0.000965 -0.003399
# 5 -0.004274 0.001129 -0.005663 -0.000965 0.028893 0.005049
# 6 0.007102 0.002924 -0.003951 -0.003399 0.005049 0.027255
#
#
# Mechanical properties :
#
#
# Convention : Reuss Voigt Hill
#
# Bulk Modulus (GPa) = 54.01003 76.78722 65.39862
# Shear Modulus (GPa) = 34.67580 44.03010 39.35295
#
# Velocity S-wave (km/s) = 3.68975 4.15775 3.93072
# Velocity P-wave (km/s) = 6.27355 7.29362 6.80273
#
# Compressibility (1/GPa) = 0.01851508
#
# Stress axis : x y z
#
# Youngs Moduli (GPa) = 52.42976 121.52408 86.50386
#
# Poissons Ratio (x) = 0.32285 0.48459
# Poissons Ratio (y) = 0.13929 0.16565
# Poissons Ratio (z) = 0.29371 0.23272
#
# Static dielectric constant tensor:
#      x y z
#    x 2.096070 0.001450 0.006650 
#    y 0.001450 2.037010 0.012090 
#    z 0.006650 0.012090 1.969750 
# 
# From -- ./inp_files/428666.got.cif
#   From: 2010.05.17/outbox.cif.g08.bks.cpg/sg2_215_cif.got.tgz:428666.got - 2010.06.03 11:33:40.
