data_PCOD9001550
_publ_section_title
;
Structure prediction by ZEFSAII (Michael W. Deem and Ramdas Pophale) SiO2 
 PCOD9001550
Probable space group: P -1
;
_chemical_formula_sum "Si O2"
_cell_formula_units_Z 14
_cell_length_a 21.265448
_cell_length_b 17.718270
_cell_length_c 8.035439
_cell_angle_alpha 56.615243
_cell_angle_beta 51.555426
_cell_angle_gamma 15.702689
_cell_volume 624.899342
_symmetry_space_group_name_H-M "P -1"
_symmetry_group_IT_number 2
_symmetry_cell_setting 'triclinic'
loop_
_space_group_symop_operation_xyz
x,y,z
-x,-y,-z
loop_
_atom_site_type_symbol
_atom_site_label
_atom_site_fract_x
_atom_site_fract_y
_atom_site_fract_z
Si Si1 0.581954 0.105558 0.611526
Si Si2 0.363537 0.672373 0.243328
Si Si3 0.699218 0.165081 0.508671
Si Si4 0.380395 0.038538 0.957395
Si Si5 0.852343 0.203211 0.841392
Si Si6 0.061554 0.538504 0.311211
Si Si7 0.882633 0.493910 0.134905
O O1 0.827995 0.841227 0.410795
O O2 0.592672 0.182958 0.610266
O O3 0.301531 0.391109 0.650791
O O4 0.587758 0.010412 0.837002
O O5 0.523205 0.422888 0.378164
O O6 0.302992 0.805153 0.330678
O O7 0.148896 0.856132 0.254620
O O8 0.556945 0.519826 0.989631
O O9 0.993862 0.868623 0.339144
O O10 0.248358 0.275727 0.853572
O O11 0.646308 0.749436 0.772775
O O12 0.172371 0.184051 0.090742
O O13 0.000000 0.000000 0.000000
O O14 0.000000 0.500000 0.500000
O O15 0.075707 0.540027 0.089776
#
# Coordination Sequence:
#
# PCOD9001550 Si02
#       7
#     2   2   2   2   2   2   2
#     4  11  22  37  55  86 119 149 196 247 289 346
#     4   9  19  38  59  83 115 153 192 234 292 354
#     4  10  21  35  58  84 115 155 193 240 291 348
#     4  10  21  37  57  81 113 152 198 241 296 350
#     4   9  18  35  60  87 110 148 190 235 290 356
#     4  11  19  36  58  81 110 151 193 246 293 344
#     4  10  21  37  57  82 112 153 195 242 294 351
#
# _framework density 22.40361
#
# number of rings (size 3 to 8) (size 9 to 14) (size 15 to 20)
#    0.000    2.000    2.857    1.286    0.000    5.143 
#    0.000    4.286    0.000    0.000    0.000    0.000 
#    0.000    0.000    0.000    0.000    0.000    0.000 
#
# Total GULP energy -77999.125558 kJ/mol
# GULP energy per Si atom -5571.366111 kJ/mol
# Density = 2.235262 g / cm^3
# Si number density = 22.403610 Si / 1000 Ang^3
#
#
#
# Elastic Constant Matrix: (Units=GPa)
#
#
# Indices 1 2 3 4 5 6 
#
# 1 111.9036 39.8745 33.5446 20.8824 -18.7048 -20.2684
# 2 39.8745 63.1527 42.6082 24.6862 -10.3270 -17.0496
# 3 33.5446 42.6082 82.3960 42.2098 -4.1286 -1.8306
# 4 20.8824 24.6862 42.2098 38.6571 -13.7972 -9.5727
# 5 -18.7048 -10.3270 -4.1286 -13.7972 43.3980 7.3573
# 6 -20.2684 -17.0496 -1.8306 -9.5727 7.3573 33.5718
#
#
#
# Elastic Compliance Matrix: (Units=1/GPa)
#
#
# Indices 1 2 3 4 5 6 
#
# 1 0.012856 -0.004315 -0.004532 0.003643 0.004323 0.005414
# 2 -0.004315 0.032317 -0.016890 0.004697 0.003433 0.013473
# 3 -0.004532 -0.016890 0.044455 -0.044494 -0.012703 -0.018793
# 4 0.003643 0.004697 -0.044494 0.082186 0.021026 0.020985
# 5 0.004323 0.003433 -0.012703 0.021026 0.030703 0.002928
# 6 0.005414 0.013473 -0.018793 0.020985 0.002928 0.044216
#
#
# Mechanical properties :
#
#
# Convention : Reuss Voigt Hill
#
# Bulk Modulus (GPa) = 26.20903 54.38964 40.29933
# Shear Modulus (GPa) = 16.08116 32.55372 24.31744
#
# Velocity S-wave (km/s) = 2.68207 3.81603 3.29815
# Velocity P-wave (km/s) = 4.61685 6.61408 5.70357
#
# Compressibility (1/GPa) = 0.03815480
#
# Stress axis : x y z
#
# Youngs Moduli (GPa) = 77.78649 30.94323 22.49469
#
# Poissons Ratio (x) = 0.13352 0.10194
# Poissons Ratio (y) = 0.33565 0.37994
# Poissons Ratio (z) = 0.35249 0.52263
#
# Static dielectric constant tensor:
#      x y z
#    x 1.895110 -0.113490 0.003900 
#    y -0.113490 1.982240 0.012480 
#    z 0.003900 0.012480 1.853850 
# 
# From -- ./inp_files/348014.got.cif
#   From: 2010.05.17/outbox.cif.g08.bks.cpg/sg2_175_cif.got.tgz:348014.got - 2010.06.03 11:33:40.
