data_PCOD9001336
_publ_section_title
;
Structure prediction by ZEFSAII (Michael W. Deem and Ramdas Pophale) SiO2 
 PCOD9001336
Probable space group: P -1
;
_chemical_formula_sum "Si O2"
_cell_formula_units_Z 16
_cell_length_a 11.755736
_cell_length_b 7.737651
_cell_length_c 11.977813
_cell_angle_alpha 92.415926
_cell_angle_beta 143.449679
_cell_angle_gamma 97.064895
_cell_volume 625.333229
_symmetry_space_group_name_H-M "P -1"
_symmetry_group_IT_number 2
_symmetry_cell_setting 'triclinic'
loop_
_space_group_symop_operation_xyz
x,y,z
-x,-y,-z
loop_
_atom_site_type_symbol
_atom_site_label
_atom_site_fract_x
_atom_site_fract_y
_atom_site_fract_z
Si Si1 0.351010 0.039742 0.285038
Si Si2 0.878342 0.759585 0.117559
Si Si3 0.069334 0.135358 0.218117
Si Si4 0.990656 0.235408 0.549364
Si Si5 0.451112 0.566111 0.253244
Si Si6 0.887959 0.583726 0.577145
Si Si7 0.643502 0.954041 0.362185
Si Si8 0.167127 0.659058 0.187712
O O1 0.500878 0.070511 0.301216
O O2 0.191945 0.845022 0.145794
O O3 0.500000 0.000000 0.500000
O O4 0.224551 0.168241 0.238606
O O5 0.867293 0.798382 0.240990
O O6 0.081243 0.704435 0.238987
O O7 0.703570 0.595502 0.933836
O O8 0.899694 0.948625 0.077889
O O9 0.012327 0.304366 0.232660
O O10 0.213071 0.083520 0.427028
O O11 0.954787 0.419244 0.574677
O O12 0.076273 0.277317 0.495399
O O13 0.790473 0.074121 0.391670
O O14 0.658615 0.520216 0.426538
O O15 0.502138 0.753213 0.227332
O O16 0.366589 0.608081 0.308003
O O17 0.000000 0.500000 0.000000
#
# Coordination Sequence:
#
# PCOD9001336 Si02
#       8
#     2   2   2   2   2   2   2   2
#     4   8  12  22  42  69  92 113 148 189 225 268
#     4   9  17  31  53  76  95 120 156 192 227 279
#     4   8  15  28  48  69  92 122 154 188 228 279
#     4  10  21  35  47  64  95 129 159 197 241 273
#     4   9  17  31  53  76  95 120 156 192 227 279
#     4  10  21  35  47  64  95 129 159 197 241 273
#     4   8  15  28  48  69  92 122 154 188 228 279
#     4   8  14  26  46  73 100 119 140 183 238 276
#
# _framework density 25.586359999999999
#
# number of rings (size 3 to 8) (size 9 to 14) (size 15 to 20)
#    0.000    3.250    0.000    1.500    0.000    5.000 
#    0.000    3.750    0.000    3.000    0.000   10.500 
#    0.000    0.000    0.000    0.000    0.000    0.000 
#
# Total GULP energy -89319.414570 kJ/mol
# GULP energy per Si atom -5582.463411 kJ/mol
# Density = 2.552812 g / cm^3
# Si number density = 25.586360 Si / 1000 Ang^3
#
#
#
# Elastic Constant Matrix: (Units=GPa)
#
#
# Indices 1 2 3 4 5 6 
#
# 1 107.3299 26.4141 35.4558 7.4262 -8.8105 -1.6372
# 2 26.4141 110.2899 30.5612 35.3447 -5.1170 0.2202
# 3 35.4558 30.5612 90.1607 46.3395 9.0755 9.0272
# 4 7.4262 35.3447 46.3395 49.0022 -0.8352 -1.3513
# 5 -8.8105 -5.1170 9.0755 -0.8352 34.7411 6.0975
# 6 -1.6372 0.2202 9.0272 -1.3513 6.0975 44.6384
#
#
#
# Elastic Compliance Matrix: (Units=1/GPa)
#
#
# Indices 1 2 3 4 5 6 
#
# 1 0.013192 -0.003357 -0.009894 0.009926 0.005310 0.002076
# 2 -0.003357 0.012755 0.003078 -0.011632 0.000151 -0.001181
# 3 -0.009894 0.003078 0.031344 -0.030704 -0.009877 -0.006297
# 4 0.009926 -0.011632 -0.030704 0.056678 0.008937 0.007126
# 5 0.005310 0.000151 -0.009877 0.008937 0.033315 -0.002089
# 6 0.002076 -0.001181 -0.006297 0.007126 -0.002089 0.024259
#
#
# Mechanical properties :
#
#
# Convention : Reuss Voigt Hill
#
# Bulk Modulus (GPa) = 27.06633 54.73808 40.90221
# Shear Modulus (GPa) = 24.48524 40.03296 32.25910
#
# Velocity S-wave (km/s) = 3.09684 3.95982 3.55462
# Velocity P-wave (km/s) = 4.83618 6.50744 5.73304
#
# Compressibility (1/GPa) = 0.03694627
#
# Stress axis : x y z
#
# Youngs Moduli (GPa) = 75.80066 78.39955 31.90360
#
# Poissons Ratio (x) = 0.26317 0.31567
# Poissons Ratio (y) = 0.25444 -0.09821
# Poissons Ratio (z) = 0.75000 -0.24133
#
# Static dielectric constant tensor:
#      x y z
#    x 1.979580 0.063590 -0.089390 
#    y 0.063590 2.185870 -0.111880 
#    z -0.089390 -0.111880 2.345440 
# 
# From -- ./inp_files/214383.got.cif
#   From: 2010.05.17/outbox.cif.g08.bks.cpg/sg2_108_cif.got.tgz:214383.got - 2010.06.03 11:33:40.
