data_PCOD9001817
_publ_section_title
;
Structure prediction by ZEFSAII (Michael W. Deem and Ramdas Pophale) SiO2 
 PCOD9001817
Probable space group: P -1
;
_chemical_formula_sum "Si O2"
_cell_formula_units_Z 14
_cell_length_a 8.377384
_cell_length_b 14.806297
_cell_length_c 9.328769
_cell_angle_alpha 40.508695
_cell_angle_beta 110.208791
_cell_angle_gamma 132.927659
_cell_volume 512.929995
_symmetry_space_group_name_H-M "P -1"
_symmetry_group_IT_number 2
_symmetry_cell_setting 'triclinic'
loop_
_space_group_symop_operation_xyz
x,y,z
-x,-y,-z
loop_
_atom_site_type_symbol
_atom_site_label
_atom_site_fract_x
_atom_site_fract_y
_atom_site_fract_z
Si Si1 0.209777 0.258383 0.935883
Si Si2 0.709100 0.219459 0.248172
Si Si3 0.507280 0.337621 0.186926
Si Si4 0.977400 0.746089 0.486476
Si Si5 0.407708 0.123370 0.004808
Si Si6 0.761337 0.439351 0.550101
Si Si7 0.155411 0.060874 0.620332
O O1 0.276280 0.200445 0.891539
O O2 0.289404 0.459271 0.693822
O O3 0.340200 0.233809 0.121537
O O4 0.954270 0.120976 0.095819
O O5 0.724376 0.371162 0.161421
O O6 0.931349 0.263799 0.322393
O O7 0.500000 0.000000 0.500000
O O8 0.625361 0.206402 0.078497
O O9 0.404170 0.195895 0.459076
O O10 0.500000 0.500000 0.000000
O O11 0.816079 0.552986 0.579000
O O12 0.858058 0.816934 0.424399
O O13 0.194620 0.903591 0.255306
O O14 0.545307 0.215798 0.785930
O O15 0.000000 0.500000 0.500000
O O16 0.000000 0.000000 0.500000
#
# Coordination Sequence:
#
# PCOD9001817 Si02
#       7
#     2   2   2   2   2   2   2
#     4   9  21  42  59  84 125 160 203 254 304 370
#     4   9  19  39  64  91 124 160 202 259 322 371
#     4  10  21  35  64  97 119 154 206 262 315 363
#     4  10  23  41  65  92 124 168 203 251 329 364
#     4   9  21  43  64  86 122 160 210 264 304 367
#     4  12  27  40  58  92 128 168 213 252 301 377
#     4   9  19  39  65  91 119 154 205 258 309 375
#
# _framework density 27.294172
#
# number of rings (size 3 to 8) (size 9 to 14) (size 15 to 20)
#    0.000    2.286    0.000    3.000    6.000    8.000 
#    2.571    0.000    0.000    0.000    0.000    0.000 
#    0.000    0.000    0.000    0.000    0.000    0.000 
#
# Total GULP energy -78119.540651 kJ/mol
# GULP energy per Si atom -5579.967189 kJ/mol
# Density = 2.723205 g / cm^3
# Si number density = 27.294172 Si / 1000 Ang^3
#
#
#
# Elastic Constant Matrix: (Units=GPa)
#
#
# Indices 1 2 3 4 5 6 
#
# 1 56.1245 -0.1376 45.7103 5.4618 -5.9755 -7.1196
# 2 -0.1376 79.0144 12.7876 11.4144 -0.5806 -1.2897
# 3 45.7103 12.7876 206.5227 5.2416 -24.3938 15.2221
# 4 5.4618 11.4144 5.2416 47.5852 5.5512 1.0917
# 5 -5.9755 -0.5806 -24.3938 5.5512 43.8509 -4.7169
# 6 -7.1196 -1.2897 15.2221 1.0917 -4.7169 29.9467
#
#
#
# Elastic Compliance Matrix: (Units=1/GPa)
#
#
# Indices 1 2 3 4 5 6 
#
# 1 0.024208 0.001571 -0.005892 -0.002878 0.001390 0.009141
# 2 0.001571 0.013362 -0.001177 -0.003335 0.000344 0.001723
# 3 -0.005892 -0.001177 0.006849 0.000017 0.002501 -0.004539
# 4 -0.002878 -0.003335 0.000017 0.022606 -0.003527 -0.002216
# 5 0.001390 0.000344 0.002501 -0.003527 0.025177 0.003168
# 6 0.009141 0.001723 -0.004539 -0.002216 0.003168 0.038527
#
#
# Mechanical properties :
#
#
# Convention : Reuss Voigt Hill
#
# Bulk Modulus (GPa) = 29.92001 50.93136 40.42569
# Shear Modulus (GPa) = 32.70878 43.16331 37.93605
#
# Velocity S-wave (km/s) = 3.46552 3.98101 3.73217
# Velocity P-wave (km/s) = 5.19605 6.31125 5.78061
#
# Compressibility (1/GPa) = 0.03342245
#
# Stress axis : x y z
#
# Youngs Moduli (GPa) = 41.30931 74.84148 146.01602
#
# Poissons Ratio (x) = -0.11757 0.86030
# Poissons Ratio (y) = -0.06489 0.17182
# Poissons Ratio (z) = 0.24339 0.08807
#
# Static dielectric constant tensor:
#      x y z
#    x 2.243280 0.060350 -0.096510 
#    y 0.060350 2.351290 0.066890 
#    z -0.096510 0.066890 2.187970 
# 
# From -- ./inp_files/186006.got.cif
#   From: 2010.05.17/outbox.cif.g08.bks.cpg/sg2_94_cif.got.tgz:186006.got - 2010.06.03 11:33:40.
