data_PCOD9001050
_publ_section_title
;
Structure prediction by ZEFSAII (Michael W. Deem and Ramdas Pophale) SiO2 
 PCOD9001050
Probable space group: P -1
;
_chemical_formula_sum "Si O2"
_cell_formula_units_Z 12
_cell_length_a 6.975072
_cell_length_b 14.503165
_cell_length_c 9.941052
_cell_angle_alpha 72.414657
_cell_angle_beta 112.989783
_cell_angle_gamma 58.372068
_cell_volume 601.221188
_symmetry_space_group_name_H-M "P -1"
_symmetry_group_IT_number 2
_symmetry_cell_setting 'triclinic'
loop_
_space_group_symop_operation_xyz
x,y,z
-x,-y,-z
loop_
_atom_site_type_symbol
_atom_site_label
_atom_site_fract_x
_atom_site_fract_y
_atom_site_fract_z
Si Si1 0.580112 0.896047 0.248324
Si Si2 0.784065 0.842921 0.764481
Si Si3 0.961709 0.917374 0.163081
Si Si4 0.917077 0.416242 0.528026
Si Si5 0.819651 0.020550 0.568929
Si Si6 0.214442 0.649526 0.206615
O O1 0.928688 0.872827 0.691079
O O2 0.705197 0.050792 0.936933
O O3 0.827885 0.730500 0.418347
O O4 0.431522 0.011850 0.270819
O O5 0.540868 0.857491 0.618424
O O6 0.015141 0.714809 0.987575
O O7 0.114938 0.938530 0.298792
O O8 0.175055 0.771931 0.201563
O O9 0.763651 0.910671 0.202206
O O10 0.572790 0.511137 0.343439
O O11 0.912083 0.379404 0.698721
O O12 0.000000 0.500000 0.500000
O O13 0.000000 0.000000 0.500000
#
# Coordination Sequence:
#
# PCOD9001050 Si02
#       6
#     2   2   2   2   2   2
#     4   9  18  35  57  87 108 138 188 233 272 330
#     4  10  22  37  58  85 113 143 189 231 273 331
#     4   9  18  34  60  82 112 141 181 235 278 319
#     4  10  21  33  57  87 113 144 180 228 284 326
#     4  11  22  34  56  88 113 146 182 231 283 326
#     4   9  21  39  55  85 115 140 185 235 270 329
#
# _framework density 19.959375999999999
#
# number of rings (size 3 to 8) (size 9 to 14) (size 15 to 20)
#    0.000    2.333    1.667    1.000    4.667    1.333 
#    0.000    0.000    0.000   15.000    0.000    0.000 
#    0.000    0.000    0.000    0.000    0.000    0.000 
#
# Total GULP energy -66958.577735 kJ/mol
# GULP energy per Si atom -5579.881478 kJ/mol
# Density = 1.991395 g / cm^3
# Si number density = 19.959376 Si / 1000 Ang^3
#
#
#
# Elastic Constant Matrix: (Units=GPa)
#
#
# Indices 1 2 3 4 5 6 
#
# 1 82.7128 19.6559 51.8259 -2.9549 7.4086 10.8922
# 2 19.6559 55.0947 25.9579 -8.9011 16.6616 -1.9474
# 3 51.8259 25.9579 156.5087 0.9120 19.4731 8.0306
# 4 -2.9549 -8.9011 0.9120 35.1074 9.8447 8.0614
# 5 7.4086 16.6616 19.4731 9.8447 40.0347 5.8073
# 6 10.8922 -1.9474 8.0306 8.0614 5.8073 30.5848
#
#
#
# Elastic Compliance Matrix: (Units=1/GPa)
#
#
# Indices 1 2 3 4 5 6 
#
# 1 0.016702 -0.004126 -0.004742 0.001373 0.001407 -0.005594
# 2 -0.004126 0.025426 -0.001630 0.008613 -0.011645 0.003457
# 3 -0.004742 -0.001630 0.008550 -0.000306 -0.002513 -0.000102
# 4 0.001373 0.008613 -0.000306 0.035620 -0.011422 -0.007080
# 5 0.001407 -0.011645 -0.002513 -0.011422 0.034185 -0.004063
# 6 -0.005594 0.003457 -0.000102 -0.007080 -0.004063 0.037573
#
#
# Mechanical properties :
#
#
# Convention : Reuss Voigt Hill
#
# Bulk Modulus (GPa) = 33.69030 54.35506 44.02268
# Shear Modulus (GPa) = 26.46303 34.27047 30.36675
#
# Velocity S-wave (km/s) = 3.64516 4.14818 3.90478
# Velocity P-wave (km/s) = 5.88493 7.08768 6.51412
#
# Compressibility (1/GPa) = 0.02968214
#
# Stress axis : x y z
#
# Youngs Moduli (GPa) = 59.87464 39.33047 116.96353
#
# Poissons Ratio (x) = 0.16226 0.55467
# Poissons Ratio (y) = 0.24702 0.19060
# Poissons Ratio (z) = 0.28394 0.06409
#
# Static dielectric constant tensor:
#      x y z
#    x 1.779650 -0.011200 -0.034750 
#    y -0.011200 1.693220 0.012840 
#    z -0.034750 0.012840 1.742710 
# 
# From -- ./inp_files/201501.got.cif
#   From: 2010.05.17/outbox.cif.g08.bks.cpg/sg2_101_cif.got.tgz:201501.got - 2010.06.03 11:33:40.
