data_PCOD9001704
_publ_section_title
;
Structure prediction by ZEFSAII (Michael W. Deem and Ramdas Pophale) SiO2 
 PCOD9001704
Probable space group: P -1
;
_chemical_formula_sum "Si O2"
_cell_formula_units_Z 12
_cell_length_a 12.469854
_cell_length_b 12.215578
_cell_length_c 9.436446
_cell_angle_alpha 71.041774
_cell_angle_beta 133.271928
_cell_angle_gamma 71.250596
_cell_volume 606.652011
_symmetry_space_group_name_H-M "P -1"
_symmetry_group_IT_number 2
_symmetry_cell_setting 'triclinic'
loop_
_space_group_symop_operation_xyz
x,y,z
-x,-y,-z
loop_
_atom_site_type_symbol
_atom_site_label
_atom_site_fract_x
_atom_site_fract_y
_atom_site_fract_z
Si Si1 0.975727 0.472616 0.328891
Si Si2 0.809963 0.540104 0.724288
Si Si3 0.725782 0.904087 0.154135
Si Si4 0.028135 0.148321 0.081805
Si Si5 0.254255 0.905181 0.099899
Si Si6 0.464338 0.108015 0.289079
O O1 0.000000 0.500000 0.500000
O O2 0.171077 0.417290 0.433384
O O3 0.044973 0.295574 0.477293
O O4 0.719347 0.671285 0.952351
O O5 0.540693 0.719124 0.461902
O O6 0.000000 0.500000 0.000000
O O7 0.898571 0.352952 0.876937
O O8 0.658386 0.889254 0.947106
O O9 0.500000 0.000000 0.000000
O O10 0.770933 0.007419 0.105771
O O11 0.121317 0.051842 0.049733
O O12 0.269626 0.012228 0.450852
O O13 0.858485 0.152219 0.982496
O O14 0.500000 0.000000 0.500000
#
# Coordination Sequence:
#
# PCOD9001704 Si02
#       6
#     2   2   2   2   2   2
#     4  10  21  35  61  90 122 159 207 260 315 364
#     4  12  22  38  69  97 120 162 225 265 303 379
#     4  11  21  37  60  89 124 157 209 256 310 375
#     4  11  23  40  62  95 131 163 210 271 318 367
#     4  11  23  40  62  93 133 169 204 264 327 372
#     4  11  19  38  63  89 117 162 218 257 299 370
#
# _framework density 19.780698000000001
#
# number of rings (size 3 to 8) (size 9 to 14) (size 15 to 20)
#    0.000    1.000    5.000    3.500    0.000    0.000 
#    0.000    1.667    0.000    0.000    0.000    0.000 
#    0.000    0.000    0.000    0.000    0.000    0.000 
#
# Total GULP energy -66945.570177 kJ/mol
# GULP energy per Si atom -5578.797515 kJ/mol
# Density = 1.973568 g / cm^3
# Si number density = 19.780698 Si / 1000 Ang^3
#
#
#
# Elastic Constant Matrix: (Units=GPa)
#
#
# Indices 1 2 3 4 5 6 
#
# 1 165.7644 56.0855 67.1254 -15.4704 -1.3784 24.2095
# 2 56.0855 78.3122 36.2276 -23.6346 -9.1465 22.1080
# 3 67.1254 36.2276 129.5278 -35.7131 -8.6215 18.4042
# 4 -15.4704 -23.6346 -35.7131 37.2411 4.6109 -3.6264
# 5 -1.3784 -9.1465 -8.6215 4.6109 34.1194 -0.0202
# 6 24.2095 22.1080 18.4042 -3.6264 -0.0202 39.4546
#
#
#
# Elastic Compliance Matrix: (Units=1/GPa)
#
#
# Indices 1 2 3 4 5 6 
#
# 1 0.009561 -0.005966 -0.004344 -0.003841 -0.001792 -0.000851
# 2 -0.005966 0.023049 0.001589 0.012230 0.004681 -0.008869
# 3 -0.004344 0.001589 0.013272 0.011347 0.002069 -0.003372
# 4 -0.003841 0.012230 0.011347 0.043318 0.000133 -0.005808
# 5 -0.001792 0.004681 0.002069 0.000133 0.030995 -0.002460
# 6 -0.000851 -0.008869 -0.003372 -0.005808 -0.002460 0.031876
#
#
# Mechanical properties :
#
#
# Convention : Reuss Voigt Hill
#
# Bulk Modulus (GPa) = 35.16055 76.94238 56.05147
# Shear Modulus (GPa) = 27.93420 36.44076 32.18748
#
# Velocity S-wave (km/s) = 3.76200 4.29679 4.03825
# Velocity P-wave (km/s) = 6.05672 7.97488 7.08105
#
# Compressibility (1/GPa) = 0.02844097
#
# Stress axis : x y z
#
# Youngs Moduli (GPa) = 104.58933 43.38648 75.34442
#
# Poissons Ratio (x) = 0.25886 0.32726
# Poissons Ratio (y) = 0.62401 -0.11974
# Poissons Ratio (z) = 0.45429 -0.06895
#
# Static dielectric constant tensor:
#      x y z
#    x 1.718610 -0.030980 -0.002350 
#    y -0.030980 1.791980 -0.035340 
#    z -0.002350 -0.035340 1.707350 
# 
# From -- ./inp_files/150911.got.cif
#   From: 2010.05.17/outbox.cif.g08.bks.cpg/sg2_76_cif.got.tgz:150911.got - 2010.06.03 11:33:40.
