data_PCOD9001076
_publ_section_title
;
Structure prediction by ZEFSAII (Michael W. Deem and Ramdas Pophale) SiO2 
 PCOD9001076
Probable space group: P -1
;
_chemical_formula_sum "Si O2"
_cell_formula_units_Z 14
_cell_length_a 14.018172
_cell_length_b 11.472944
_cell_length_c 10.076808
_cell_angle_alpha 119.901955
_cell_angle_beta 128.673697
_cell_angle_gamma 30.148852
_cell_volume 631.852253
_symmetry_space_group_name_H-M "P -1"
_symmetry_group_IT_number 2
_symmetry_cell_setting 'triclinic'
loop_
_space_group_symop_operation_xyz
x,y,z
-x,-y,-z
loop_
_atom_site_type_symbol
_atom_site_label
_atom_site_fract_x
_atom_site_fract_y
_atom_site_fract_z
Si Si1 0.277281 0.168962 0.267981
Si Si2 0.893170 0.347758 0.036504
Si Si3 0.692495 0.553218 0.533324
Si Si4 0.755509 0.041930 0.695702
Si Si5 0.142666 0.082927 0.589516
Si Si6 0.375299 0.151687 0.841867
Si Si7 0.543561 0.585204 0.682011
O O1 0.251810 0.343855 0.392159
O O2 0.296850 0.063101 0.358741
O O3 0.466388 0.987563 0.224481
O O4 0.070872 0.283780 0.085118
O O5 0.736004 0.398346 0.843294
O O6 0.742211 0.598195 0.111734
O O7 0.038865 0.121998 0.127326
O O8 0.627127 0.620187 0.668929
O O9 0.904685 0.277962 0.542470
O O10 0.484390 0.683697 0.350526
O O11 0.830618 0.986345 0.578920
O O12 0.208521 0.180061 0.700343
O O13 0.322209 0.840359 0.689454
O O14 0.500000 0.000000 0.000000
O O15 0.500000 0.500000 0.500000
#
# Coordination Sequence:
#
# PCOD9001076 Si02
#       7
#     2   2   2   2   2   2   2
#     4  10  21  33  60  90 129 154 185 236 304 359
#     4  10  23  36  62  89 121 157 190 246 297 356
#     4  11  21  38  61  87 126 157 195 239 300 354
#     4   9  22  36  56  96 124 159 186 236 305 365
#     4  11  22  37  62  90 124 158 192 242 302 351
#     4  12  21  33  56  94 130 151 195 239 293 363
#     4  11  25  45  61  83 116 160 211 249 290 346
#
# _framework density 22.157079
#
# number of rings (size 3 to 8) (size 9 to 14) (size 15 to 20)
#    0.857    0.571    5.714    0.429    4.000    2.857 
#    0.000    2.857    0.000    1.714    0.000    0.000 
#    0.000    0.000    0.000    0.000    0.000    0.000 
#
# Total GULP energy -77970.460511 kJ/mol
# GULP energy per Si atom -5569.318608 kJ/mol
# Density = 2.210665 g / cm^3
# Si number density = 22.157079 Si / 1000 Ang^3
#
#
#
# Elastic Constant Matrix: (Units=GPa)
#
#
# Indices 1 2 3 4 5 6 
#
# 1 25.9255 15.6758 2.2777 -9.4253 3.3267 -6.8674
# 2 15.6758 118.2786 58.6636 -38.3298 11.7292 -41.5632
# 3 2.2777 58.6636 136.0956 -40.1365 22.5080 -6.3535
# 4 -9.4253 -38.3298 -40.1365 47.4261 5.5935 7.8501
# 5 3.3267 11.7292 22.5080 5.5935 27.4623 -1.7844
# 6 -6.8674 -41.5632 -6.3535 7.8501 -1.7844 31.0112
#
#
#
# Elastic Compliance Matrix: (Units=1/GPa)
#
#
# Indices 1 2 3 4 5 6 
#
# 1 0.047217 -0.001991 0.006538 0.014011 -0.012766 0.004846
# 2 -0.001991 0.027251 -0.005107 0.013053 -0.007838 0.031281
# 3 0.006538 -0.005107 0.015255 0.012795 -0.014131 -0.006323
# 4 0.014011 0.013053 0.012795 0.046761 -0.026644 0.009849
# 5 -0.012766 -0.007838 -0.014131 -0.026644 0.057917 -0.006151
# 6 0.004846 0.031281 -0.006323 0.009849 -0.006151 0.071102
#
#
# Mechanical properties :
#
#
# Convention : Reuss Voigt Hill
#
# Bulk Modulus (GPa) = 11.28639 48.17043 29.72841
# Shear Modulus (GPa) = 16.88295 34.75876 25.82085
#
# Velocity S-wave (km/s) = 2.76337 3.96503 3.41743
# Velocity P-wave (km/s) = 3.90979 6.53832 5.38684
#
# Compressibility (1/GPa) = 0.08860232
#
# Stress axis : x y z
#
# Youngs Moduli (GPa) = 21.17880 36.69581 65.55226
#
# Poissons Ratio (x) = 0.07307 -0.42856
# Poissons Ratio (y) = 0.04217 0.33477
# Poissons Ratio (z) = -0.13846 0.18740
#
# Static dielectric constant tensor:
#      x y z
#    x 1.827780 0.054030 0.011390 
#    y 0.054030 1.906050 -0.072390 
#    z 0.011390 -0.072390 1.892630 
# 
# From -- ./inp_files/451660.got.cif
#   From: 2010.05.17/outbox.cif.g08.bks.cpg/sg2_226_cif.got.tgz:451660.got - 2010.06.03 11:33:40.
