data_PCOD9001799
_publ_section_title
;
Structure prediction by ZEFSAII (Michael W. Deem and Ramdas Pophale) SiO2 
 PCOD9001799
Probable space group: P -1
;
_chemical_formula_sum "Si O2"
_cell_formula_units_Z 14
_cell_length_a 8.863611
_cell_length_b 9.008306
_cell_length_c 14.298589
_cell_angle_alpha 113.415745
_cell_angle_beta 139.063936
_cell_angle_gamma 73.416875
_cell_volume 686.238351
_symmetry_space_group_name_H-M "P -1"
_symmetry_group_IT_number 2
_symmetry_cell_setting 'triclinic'
loop_
_space_group_symop_operation_xyz
x,y,z
-x,-y,-z
loop_
_atom_site_type_symbol
_atom_site_label
_atom_site_fract_x
_atom_site_fract_y
_atom_site_fract_z
Si Si1 0.175098 0.354200 0.563254
Si Si2 0.319234 0.660424 0.156517
Si Si3 0.179125 0.004783 0.171831
Si Si4 0.969006 0.460595 0.843844
Si Si5 0.226223 0.033930 0.401473
Si Si6 0.915682 0.236290 0.584543
Si Si7 0.562679 0.653639 0.637026
O O1 0.440966 0.408169 0.713992
O O2 0.185055 0.220969 0.452721
O O3 0.000000 0.500000 0.500000
O O4 0.108940 0.255283 0.601814
O O5 0.119281 0.648831 0.139061
O O6 0.340531 0.850775 0.192165
O O7 0.208742 0.553153 0.996115
O O8 0.085383 0.988188 0.230093
O O9 0.319533 0.174195 0.292719
O O10 0.000000 0.000000 0.000000
O O11 0.968277 0.365180 0.723352
O O12 0.762986 0.586824 0.777582
O O13 0.500000 0.000000 0.500000
O O14 0.142837 0.925277 0.423763
O O15 0.687484 0.291151 0.436216
O O16 0.500000 0.500000 0.500000
#
# Coordination Sequence:
#
# PCOD9001799 Si02
#       7
#     2   2   2   2   2   2   2
#     4  12  27  41  66 102 141 180 229 284 352 421
#     4  11  22  41  65  99 136 182 232 282 345 413
#     4  12  23  40  69 103 132 172 233 296 340 395
#     4  10  21  38  66  97 136 177 231 291 340 402
#     4  12  23  44  70  96 129 182 236 285 334 408
#     4  11  22  40  65  96 140 183 224 281 353 414
#     4  10  21  35  64 101 131 170 232 286 335 397
#
# _framework density 20.401073
#
# number of rings (size 3 to 8) (size 9 to 14) (size 15 to 20)
#    0.000    0.857    5.714    1.286    6.000    0.571 
#    0.000    0.000    0.000    2.571    0.000    0.000 
#    0.000    0.000    0.000    0.000    0.000    0.000 
#
# Total GULP energy -77937.071205 kJ/mol
# GULP energy per Si atom -5566.933657 kJ/mol
# Density = 2.035464 g / cm^3
# Si number density = 20.401073 Si / 1000 Ang^3
#
#
#
# Elastic Constant Matrix: (Units=GPa)
#
#
# Indices 1 2 3 4 5 6 
#
# 1 74.5590 24.8014 31.1472 9.7458 -4.9163 -1.6061
# 2 24.8014 132.5996 57.2777 12.2395 4.8343 -14.0488
# 3 31.1472 57.2777 131.3832 -1.7778 -3.8666 -13.4792
# 4 9.7458 12.2395 -1.7778 30.2126 6.7053 5.2170
# 5 -4.9163 4.8343 -3.8666 6.7053 23.9009 0.7759
# 6 -1.6061 -14.0488 -13.4792 5.2170 0.7759 31.7290
#
#
#
# Elastic Compliance Matrix: (Units=1/GPa)
#
#
# Indices 1 2 3 4 5 6 
#
# 1 0.016290 -0.001290 -0.003268 -0.005932 0.004756 -0.000276
# 2 -0.001290 0.010319 -0.003941 -0.004183 -0.001932 0.003565
# 3 -0.003268 -0.003941 0.010378 0.002692 0.000982 0.002032
# 4 -0.005932 -0.004183 0.002692 0.040607 -0.011090 -0.007414
# 5 0.004756 -0.001932 0.000982 -0.011090 0.046463 0.000490
# 6 -0.000276 0.003565 0.002032 -0.007414 0.000490 0.035151
#
#
# Mechanical properties :
#
#
# Convention : Reuss Voigt Hill
#
# Bulk Modulus (GPa) = 50.02736 62.77716 56.40226
# Shear Modulus (GPa) = 27.34204 32.18952 29.76578
#
# Velocity S-wave (km/s) = 3.66488 3.97651 3.82387
# Velocity P-wave (km/s) = 6.51795 7.20568 6.87042
#
# Compressibility (1/GPa) = 0.01998906
#
# Stress axis : x y z
#
# Youngs Moduli (GPa) = 61.38863 96.90619 96.35951
#
# Poissons Ratio (x) = 0.12504 0.31489
# Poissons Ratio (y) = 0.07921 0.37972
# Poissons Ratio (z) = 0.20061 0.38187
#
# Static dielectric constant tensor:
#      x y z
#    x 1.755840 0.072870 -0.018450 
#    y 0.072870 1.844990 0.010860 
#    z -0.018450 0.010860 1.760820 
# 
# From -- ./inp_files/199463.got.cif
#   From: 2010.05.17/outbox.cif.g08.bks.cpg/sg2_100_cif.got.tgz:199463.got - 2010.06.03 11:33:40.
