data_PCOD9001038
_publ_section_title
;
Structure prediction by ZEFSAII (Michael W. Deem and Ramdas Pophale) SiO2 
 PCOD9001038
Probable space group: P -1
;
_chemical_formula_sum "Si O2"
_cell_formula_units_Z 16
_cell_length_a 22.880884
_cell_length_b 10.654304
_cell_length_c 15.441230
_cell_angle_alpha 137.542452
_cell_angle_beta 22.177652
_cell_angle_gamma 145.104842
_cell_volume 808.751209
_symmetry_space_group_name_H-M "P -1"
_symmetry_group_IT_number 2
_symmetry_cell_setting 'triclinic'
loop_
_space_group_symop_operation_xyz
x,y,z
-x,-y,-z
loop_
_atom_site_type_symbol
_atom_site_label
_atom_site_fract_x
_atom_site_fract_y
_atom_site_fract_z
Si Si1 0.958781 0.105452 0.694587
Si Si2 0.575018 0.321915 0.971484
Si Si3 0.326077 0.835576 0.419259
Si Si4 0.256071 0.163321 0.439409
Si Si5 0.426321 0.311897 0.930019
Si Si6 0.514682 0.328391 0.333825
Si Si7 0.869920 0.292643 0.629401
Si Si8 0.931678 0.456164 0.809329
O O1 0.942992 0.310374 0.794186
O O2 0.110548 0.200291 0.611334
O O3 0.000000 0.000000 0.500000
O O4 0.768009 0.899937 0.886557
O O5 0.643561 0.263096 0.761514
O O6 0.681992 0.284834 0.880947
O O7 0.365979 0.156880 0.200851
O O8 0.595447 0.557020 0.052647
O O9 0.433994 0.772104 0.307571
O O10 0.113149 0.702163 0.673907
O O11 0.419505 0.091978 0.395236
O O12 0.400602 0.298852 0.386122
O O13 0.144573 0.914978 0.499885
O O14 0.500000 0.500000 0.000000
O O15 0.500000 0.500000 0.500000
O O16 0.731573 0.422822 0.070359
O O17 0.942422 0.334320 0.647046
O O18 0.000000 0.500000 0.500000
#
# Coordination Sequence:
#
# PCOD9001038 Si02
#       8
#     2   2   2   2   2   2   2   2
#     4  12  21  36  62 100 134 170 199 247 335 409
#     4  11  19  33  57  93 132 159 192 253 330 397
#     4  11  21  40  63  94 132 163 211 265 321 393
#     4  12  23  37  61  94 135 165 213 262 318 390
#     4  10  21  33  55  94 139 168 194 246 317 407
#     4  12  27  47  66  88 124 179 233 274 304 356
#     4  12  20  33  57  95 133 162 196 251 333 402
#     4  12  23  40  68  95 130 172 205 263 335 389
#
# _framework density 19.783588000000002
#
# number of rings (size 3 to 8) (size 9 to 14) (size 15 to 20)
#    0.000    0.500    6.250    5.625    0.000    0.500 
#    0.000    0.625    0.000    1.500    0.000    0.000 
#    0.000    0.000    0.000    0.000    0.000    0.000 
#
# Total GULP energy -89121.808733 kJ/mol
# GULP energy per Si atom -5570.113046 kJ/mol
# Density = 1.973856 g / cm^3
# Si number density = 19.783588 Si / 1000 Ang^3
#
#
#
# Elastic Constant Matrix: (Units=GPa)
#
#
# Indices 1 2 3 4 5 6 
#
# 1 98.1568 36.1530 31.2993 14.2014 -28.9598 -15.8372
# 2 36.1530 88.2843 49.6839 -5.9858 -3.7152 -12.8222
# 3 31.2993 49.6839 87.4945 -12.0532 -19.0273 6.0278
# 4 14.2014 -5.9858 -12.0532 28.2041 -2.4976 1.4611
# 5 -28.9598 -3.7152 -19.0273 -2.4976 28.6651 -0.2038
# 6 -15.8372 -12.8222 6.0278 1.4611 -0.2038 26.6125
#
#
#
# Elastic Compliance Matrix: (Units=1/GPa)
#
#
# Indices 1 2 3 4 5 6 
#
# 1 0.022997 -0.005684 -0.003549 -0.013267 0.019075 0.012625
# 2 -0.005684 0.022720 -0.014264 -0.000046 -0.012193 0.010705
# 3 -0.003549 -0.014264 0.026339 0.011969 0.012982 -0.015508
# 4 -0.013267 -0.000046 0.011969 0.047805 -0.001394 -0.013264
# 5 0.019075 -0.012193 0.012982 -0.001394 0.061094 0.003081
# 6 0.012625 0.010705 -0.015508 -0.013264 0.003081 0.054512
#
#
# Mechanical properties :
#
#
# Convention : Reuss Voigt Hill
#
# Bulk Modulus (GPa) = 39.89800 56.46757 48.18279
# Shear Modulus (GPa) = 17.19310 27.14966 22.17138
#
# Velocity S-wave (km/s) = 2.95118 3.70852 3.35131
# Velocity P-wave (km/s) = 5.64124 6.85143 6.27558
#
# Compressibility (1/GPa) = 0.02506391
#
# Stress axis : x y z
#
# Youngs Moduli (GPa) = 43.48373 44.01334 37.96649
#
# Poissons Ratio (x) = 0.25015 0.13473
# Poissons Ratio (y) = 0.24714 0.54156
# Poissons Ratio (z) = 0.15431 0.62782
#
# Static dielectric constant tensor:
#      x y z
#    x 1.700260 -0.057570 0.102050 
#    y -0.057570 1.715100 -0.010490 
#    z 0.102050 -0.010490 1.477680 
# 
# From -- ./inp_files/579771.got.cif
#   From: 2010.05.17/outbox.cif.g08.bks.cpg/sg2_290_cif.got.tgz:579771.got - 2010.06.03 11:33:40.
