data_PCOD9001962
_publ_section_title
;
Structure prediction by ZEFSAII (Michael W. Deem and Ramdas Pophale) SiO2 
 PCOD9001962
Probable space group: P -1
;
_chemical_formula_sum "Si O2"
_cell_formula_units_Z 16
_cell_length_a 7.051003
_cell_length_b 22.011214
_cell_length_c 10.552116
_cell_angle_alpha 42.467015
_cell_angle_beta 136.231768
_cell_angle_gamma 131.984315
_cell_volume 731.613738
_symmetry_space_group_name_H-M "P -1"
_symmetry_group_IT_number 2
_symmetry_cell_setting 'triclinic'
loop_
_space_group_symop_operation_xyz
x,y,z
-x,-y,-z
loop_
_atom_site_type_symbol
_atom_site_label
_atom_site_fract_x
_atom_site_fract_y
_atom_site_fract_z
Si Si1 0.935788 0.107081 0.021831
Si Si2 0.501776 0.400872 0.100078
Si Si3 0.249792 0.206582 0.244067
Si Si4 0.177808 0.740499 0.737204
Si Si5 0.520095 0.075293 0.281383
Si Si6 0.531048 0.404961 0.815104
Si Si7 0.862209 0.617247 0.572416
Si Si8 0.622465 0.950070 0.298295
O O1 0.016757 0.183508 0.055510
O O2 0.225699 0.104767 0.095449
O O3 0.807188 0.006415 0.185073
O O4 0.682170 0.115921 0.796745
O O5 0.288559 0.301658 0.195867
O O6 0.822790 0.393450 0.284133
O O7 0.500000 0.500000 0.000000
O O8 0.423855 0.400332 0.914403
O O9 0.551665 0.223902 0.285704
O O10 0.222017 0.113401 0.453384
O O11 0.222725 0.831664 0.704776
O O12 0.908565 0.695133 0.586059
O O13 0.242993 0.655371 0.977477
O O14 0.500000 0.000000 0.500000
O O15 0.556100 0.025207 0.246209
O O16 0.678455 0.514353 0.689339
O O17 0.291237 0.362960 0.658772
#
# Coordination Sequence:
#
# PCOD9001962 Si02
#       8
#     2   2   2   2   2   2   2   2
#     4  10  22  38  58  83 115 152 186 234 281 326
#     4  10  21  36  55  84 109 143 182 225 280 327
#     4   9  19  36  57  78 108 148 183 224 275 330
#     4   9  18  33  54  83 108 143 183 225 275 326
#     4  11  21  37  57  87 113 150 192 229 280 332
#     4   9  18  36  58  80 109 143 183 222 278 330
#     4   9  18  36  59  78 108 147 176 229 277 326
#     4  11  21  39  60  81 116 151 189 232 280 333
#
# _framework density 21.869463
#
# number of rings (size 3 to 8) (size 9 to 14) (size 15 to 20)
#    0.000    2.500    2.500    2.250    0.000    6.500 
#    6.750    0.000    5.500    0.000    0.000    0.000 
#    0.000    0.000    0.000    0.000    0.000    0.000 
#
# Total GULP energy -89344.040155 kJ/mol
# GULP energy per Si atom -5584.002510 kJ/mol
# Density = 2.181969 g / cm^3
# Si number density = 21.869463 Si / 1000 Ang^3
#
#
#
# Elastic Constant Matrix: (Units=GPa)
#
#
# Indices 1 2 3 4 5 6 
#
# 1 47.7173 19.3740 12.4470 6.0330 7.8710 -6.7180
# 2 19.3740 164.4363 35.1955 26.2480 7.8265 -23.3640
# 3 12.4470 35.1955 64.2240 31.3346 -10.0530 -13.4334
# 4 6.0330 26.2480 31.3346 47.4794 0.4731 0.2535
# 5 7.8710 7.8265 -10.0530 0.4731 19.7004 -3.2213
# 6 -6.7180 -23.3640 -13.4334 0.2535 -3.2213 36.3978
#
#
#
# Elastic Compliance Matrix: (Units=1/GPa)
#
#
# Indices 1 2 3 4 5 6 
#
# 1 0.025350 -0.001112 -0.007790 0.002673 -0.013750 -0.000146
# 2 -0.001112 0.007839 -0.002708 -0.002390 -0.003415 0.003542
# 3 -0.007790 -0.002708 0.035268 -0.021099 0.024682 0.012172
# 4 0.002673 -0.002390 -0.021099 0.036157 -0.013433 -0.010269
# 5 -0.013750 -0.003415 0.024682 -0.013433 0.072306 0.010872
# 6 -0.000146 0.003542 0.012172 -0.010269 0.010872 0.035247
#
#
# Mechanical properties :
#
#
# Convention : Reuss Voigt Hill
#
# Bulk Modulus (GPa) = 22.10627 45.60117 33.85372
# Shear Modulus (GPa) = 19.96267 34.67293 27.31780
#
# Velocity S-wave (km/s) = 3.02455 3.98609 3.53814
# Velocity P-wave (km/s) = 4.72519 6.48707 5.67492
#
# Compressibility (1/GPa) = 0.04523603
#
# Stress axis : x y z
#
# Youngs Moduli (GPa) = 39.44774 127.56084 28.35420
#
# Poissons Ratio (x) = 0.14188 0.22089
# Poissons Ratio (y) = 0.04388 0.07679
# Poissons Ratio (z) = 0.30731 0.34547
#
# Static dielectric constant tensor:
#      x y z
#    x 1.872110 0.015140 -0.013270 
#    y 0.015140 1.860520 -0.015010 
#    z -0.013270 -0.015010 1.773190 
# 
# From -- ./inp_files/406629.got.cif
#   From: 2010.05.17/outbox.cif.g08.bks.cpg/sg2_204_cif.got.tgz:406629.got - 2010.06.03 11:33:40.
