data_PCOD9001789
_publ_section_title
;
Structure prediction by ZEFSAII (Michael W. Deem and Ramdas Pophale) SiO2 
 PCOD9001789
Probable space group: P -1
;
_chemical_formula_sum "Si O2"
_cell_formula_units_Z 14
_cell_length_a 14.726328
_cell_length_b 11.036705
_cell_length_c 9.163725
_cell_angle_alpha 68.352932
_cell_angle_beta 69.243891
_cell_angle_gamma 27.911905
_cell_volume 646.645143
_symmetry_space_group_name_H-M "P -1"
_symmetry_group_IT_number 2
_symmetry_cell_setting 'triclinic'
loop_
_space_group_symop_operation_xyz
x,y,z
-x,-y,-z
loop_
_atom_site_type_symbol
_atom_site_label
_atom_site_fract_x
_atom_site_fract_y
_atom_site_fract_z
Si Si1 0.271938 0.232783 0.310555
Si Si2 0.034093 0.764562 0.523246
Si Si3 0.124149 0.459168 0.856982
Si Si4 0.576028 0.089684 0.177048
Si Si5 0.133910 0.211378 0.650341
Si Si6 0.686394 0.375599 0.444911
Si Si7 0.454956 0.246684 0.855545
O O1 0.250040 0.179284 0.497661
O O2 0.046766 0.521105 0.273560
O O3 0.379833 0.245202 0.265097
O O4 0.391446 0.002890 0.230481
O O5 0.023207 0.683747 0.709432
O O6 0.242737 0.595926 0.491032
O O7 0.979597 0.745249 0.421113
O O8 0.866964 0.067771 0.480888
O O9 0.275344 0.204840 0.783783
O O10 0.272337 0.361269 0.926061
O O11 0.000000 0.500000 0.000000
O O12 0.695917 0.046979 0.231710
O O13 0.549504 0.166609 0.992441
O O14 0.500000 0.500000 0.500000
O O15 0.639589 0.517515 0.268060
#
# Coordination Sequence:
#
# PCOD9001789 Si02
#       7
#     2   2   2   2   2   2   2
#     4  10  21  39  57  92 133 168 206 247 309 380
#     4  10  23  41  60  94 119 157 221 248 301 376
#     4  10  21  35  63  93 127 159 196 261 313 357
#     4  11  24  35  58  97 134 160 200 255 319 375
#     4  11  23  36  62  89 133 172 193 252 323 372
#     4  10  22  42  67  85 116 169 214 265 294 354
#     4  10  23  40  62  97 127 160 216 256 303 371
#
# _framework density 21.650205
#
# number of rings (size 3 to 8) (size 9 to 14) (size 15 to 20)
#    0.000    1.714    0.000    4.714   10.000    3.429 
#    0.000    0.714    0.000    1.714    0.000    0.000 
#    0.000    0.000    0.000    0.000    0.000    0.000 
#
# Total GULP energy -78038.162913 kJ/mol
# GULP energy per Si atom -5574.154494 kJ/mol
# Density = 2.160093 g / cm^3
# Si number density = 21.650205 Si / 1000 Ang^3
#
#
#
# Elastic Constant Matrix: (Units=GPa)
#
#
# Indices 1 2 3 4 5 6 
#
# 1 109.7174 29.9474 65.1229 -7.8874 4.7772 -38.8420
# 2 29.9474 90.3486 62.6698 -20.7686 -4.1421 -20.8322
# 3 65.1229 62.6698 119.9312 -12.8371 10.3024 -18.5266
# 4 -7.8874 -20.7686 -12.8371 39.9590 -13.5035 -1.2975
# 5 4.7772 -4.1421 10.3024 -13.5035 42.8990 -9.4866
# 6 -38.8420 -20.8322 -18.5266 -1.2975 -9.4866 45.3045
#
#
#
# Elastic Compliance Matrix: (Units=1/GPa)
#
#
# Indices 1 2 3 4 5 6 
#
# 1 0.021390 0.008419 -0.012970 0.007803 0.008168 0.018840
# 2 0.008419 0.027600 -0.015873 0.016329 0.014418 0.016905
# 3 -0.012970 -0.015873 0.021917 -0.007663 -0.010384 -0.011850
# 4 0.007803 0.016329 -0.007663 0.039361 0.018490 0.016064
# 5 0.008168 0.014418 -0.010384 0.018490 0.035965 0.017446
# 6 0.018840 0.016905 -0.011850 0.016064 0.017446 0.045266
#
#
# Mechanical properties :
#
#
# Convention : Reuss Voigt Hill
#
# Bulk Modulus (GPa) = 33.26939 70.60859 51.93899
# Shear Modulus (GPa) = 20.62991 36.44965 28.53978
#
# Velocity S-wave (km/s) = 3.09021 4.10758 3.63467
# Velocity P-wave (km/s) = 5.30403 7.42836 6.45419
#
# Compressibility (1/GPa) = 0.03005766
#
# Stress axis : x y z
#
# Youngs Moduli (GPa) = 46.75157 36.23129 45.62758
#
# Poissons Ratio (x) = -0.30502 0.59179
# Poissons Ratio (y) = -0.39359 0.72426
# Poissons Ratio (z) = 0.60637 0.57511
#
# Static dielectric constant tensor:
#      x y z
#    x 1.965010 -0.019390 0.061270 
#    y -0.019390 1.809990 0.001940 
#    z 0.061270 0.001940 1.814660 
# 
# From -- ./inp_files/306946.got.cif
#   From: 2010.05.17/outbox.cif.g08.bks.cpg/sg2_154_cif.got.tgz:306946.got - 2010.06.03 11:33:40.
