data_PCOD9001571
_publ_section_title
;
Structure prediction by ZEFSAII (Michael W. Deem and Ramdas Pophale) SiO2 
 PCOD9001571
Probable space group: P -1
;
_chemical_formula_sum "Si O2"
_cell_formula_units_Z 16
_cell_length_a 5.226823
_cell_length_b 12.971262
_cell_length_c 11.501606
_cell_angle_alpha 103.629419
_cell_angle_beta 77.205137
_cell_angle_gamma 127.172185
_cell_volume 600.701573
_symmetry_space_group_name_H-M "P -1"
_symmetry_group_IT_number 2
_symmetry_cell_setting 'triclinic'
loop_
_space_group_symop_operation_xyz
x,y,z
-x,-y,-z
loop_
_atom_site_type_symbol
_atom_site_label
_atom_site_fract_x
_atom_site_fract_y
_atom_site_fract_z
Si Si1 0.314599 0.060278 0.185024
Si Si2 0.896664 0.639313 0.129211
Si Si3 0.119727 0.671787 0.725116
Si Si4 0.656076 0.645951 0.570693
Si Si5 0.833481 0.840315 0.045233
Si Si6 0.090420 0.935980 0.573091
Si Si7 0.631006 0.138451 0.728016
Si Si8 0.341708 0.623001 0.907649
O O1 0.679485 0.184844 0.197455
O O2 0.099023 0.089340 0.291566
O O3 0.284158 0.948344 0.237372
O O4 0.174866 0.981819 0.056574
O O5 0.854240 0.729057 0.073483
O O6 0.600639 0.488797 0.124610
O O7 0.045348 0.714327 0.255415
O O8 0.162451 0.626858 0.038976
O O9 0.360875 0.660646 0.614831
O O10 0.107951 0.589949 0.814047
O O11 0.826280 0.647033 0.673876
O O12 0.500000 0.500000 0.500000
O O13 0.943053 0.784359 0.518930
O O14 0.618254 0.857880 0.161748
O O15 0.662628 0.771809 0.921628
O O16 0.000000 0.000000 0.500000
O O17 0.450519 0.056252 0.609247
#
# Coordination Sequence:
#
# PCOD9001571 Si02
#       8
#     2   2   2   2   2   2   2   2
#     4   9  19  38  59  84 124 158 200 259 308 367
#     4   9  19  36  56  85 128 159 202 262 300 366
#     4  11  24  43  68  89 125 169 209 255 313 386
#     4  11  25  48  66  92 132 163 207 268 325 376
#     4   9  18  34  58  84 124 159 196 257 307 360
#     4  10  21  38  64  91 116 162 210 263 317 379
#     4   9  17  36  56  84 119 156 197 252 318 355
#     4  10  21  35  58  90 120 168 210 248 309 371
#
# _framework density 26.635522999999999
#
# number of rings (size 3 to 8) (size 9 to 14) (size 15 to 20)
#    0.000    2.250    1.250    0.750    1.750    2.000 
#    6.750    5.625    0.000    0.000    0.000    0.000 
#    0.000    0.000    0.000    0.000    0.000    0.000 
#
# Total GULP energy -89272.528900 kJ/mol
# GULP energy per Si atom -5579.533056 kJ/mol
# Density = 2.657490 g / cm^3
# Si number density = 26.635523 Si / 1000 Ang^3
#
#
#
# Elastic Constant Matrix: (Units=GPa)
#
#
# Indices 1 2 3 4 5 6 
#
# 1 66.8584 14.6946 23.6368 17.7268 10.9692 1.6348
# 2 14.6946 154.0729 40.3969 37.5136 1.1311 -5.0740
# 3 23.6368 40.3969 120.3534 25.0157 27.2463 7.8136
# 4 17.7268 37.5136 25.0157 49.3459 5.9138 -1.4886
# 5 10.9692 1.1311 27.2463 5.9138 56.8046 3.8572
# 6 1.6348 -5.0740 7.8136 -1.4886 3.8572 31.4830
#
#
#
# Elastic Compliance Matrix: (Units=1/GPa)
#
#
# Indices 1 2 3 4 5 6 
#
# 1 0.017281 0.000096 -0.001918 -0.005098 -0.001860 -0.000419
# 2 0.000096 0.008399 -0.002086 -0.005472 0.001286 0.001450
# 3 -0.001918 -0.002086 0.011176 -0.002934 -0.004466 -0.002602
# 4 -0.005098 -0.005472 -0.002934 0.027849 -0.000500 0.001489
# 5 -0.001860 0.001286 -0.004466 -0.000500 0.020206 -0.001087
# 6 -0.000419 0.001450 -0.002602 0.001489 -0.001087 0.032868
#
#
# Mechanical properties :
#
#
# Convention : Reuss Voigt Hill
#
# Bulk Modulus (GPa) = 34.43585 55.41568 44.92577
# Shear Modulus (GPa) = 36.96198 45.03045 40.99621
#
# Velocity S-wave (km/s) = 3.72922 4.11617 3.92746
# Velocity P-wave (km/s) = 5.61243 6.59097 6.12128
#
# Compressibility (1/GPa) = 0.02903950
#
# Stress axis : x y z
#
# Youngs Moduli (GPa) = 57.86644 119.06329 89.48142
#
# Poissons Ratio (x) = -0.01142 0.17165
# Poissons Ratio (y) = -0.00555 0.18664
# Poissons Ratio (z) = 0.11100 0.24834
#
# Static dielectric constant tensor:
#      x y z
#    x 2.232100 0.133350 0.028280 
#    y 0.133350 2.214700 0.008170 
#    z 0.028280 0.008170 2.153860 
# 
# From -- ./inp_files/82252.got.cif
#   From: 2010.05.17/outbox.cif.g08.bks.cpg/sg2_42_cif.got.tgz:82252.got - 2010.06.03 11:33:40.
