data_PCOD9001227
_publ_section_title
;
Structure prediction by ZEFSAII (Michael W. Deem and Ramdas Pophale) SiO2 
 PCOD9001227
Probable space group: P -1
;
_chemical_formula_sum "Si O2"
_cell_formula_units_Z 16
_cell_length_a 9.560664
_cell_length_b 11.359004
_cell_length_c 10.463052
_cell_angle_alpha 140.429418
_cell_angle_beta 55.503213
_cell_angle_gamma 120.697026
_cell_volume 590.618914
_symmetry_space_group_name_H-M "P -1"
_symmetry_group_IT_number 2
_symmetry_cell_setting 'triclinic'
loop_
_space_group_symop_operation_xyz
x,y,z
-x,-y,-z
loop_
_atom_site_type_symbol
_atom_site_label
_atom_site_fract_x
_atom_site_fract_y
_atom_site_fract_z
Si Si1 0.626309 0.137843 0.725428
Si Si2 0.048931 0.462075 0.779171
Si Si3 0.593089 0.518985 0.331196
Si Si4 0.978156 0.695834 0.614790
Si Si5 0.310901 0.443180 0.945717
Si Si6 0.625489 0.849889 0.939433
Si Si7 0.176329 0.875319 0.126929
Si Si8 0.822475 0.953393 0.263019
O O1 0.770458 0.124692 0.751897
O O2 0.681086 0.027735 0.485258
O O3 0.613687 0.353608 0.870452
O O4 0.446592 0.060201 0.822284
O O5 0.217301 0.370070 0.648829
O O6 0.989721 0.353707 0.590839
O O7 0.146699 0.674512 0.901660
O O8 0.872060 0.499645 0.969521
O O9 0.500000 0.500000 0.500000
O O10 0.569030 0.605197 0.274222
O O11 0.537353 0.303210 0.137220
O O12 0.787481 0.739473 0.777266
O O13 0.000000 0.500000 0.500000
O O14 0.104878 0.885161 0.740235
O O15 0.244562 0.263583 0.914254
O O16 0.684892 0.990102 0.912737
O O17 0.992301 0.942483 0.253688
#
# Coordination Sequence:
#
# PCOD9001227 Si02
#       8
#     2   2   2   2   2   2   2   2
#     4  11  20  36  61  89 136 161 180 254 297 372
#     4  11  20  36  60  87 121 160 194 248 299 355
#     4  11  21  32  59  91 133 158 180 245 300 368
#     4  11  24  45  65  82 115 162 217 265 301 350
#     4  10  22  36  58  95 127 159 205 227 305 376
#     4  10  22  38  56  94 125 157 207 232 314 361
#     4  10  21  34  57  95 130 159 193 236 303 383
#     4  10  23  37  60  88 119 165 206 245 296 367
#
# _framework density 27.090226000000001
#
# number of rings (size 3 to 8) (size 9 to 14) (size 15 to 20)
#    0.000    1.500    5.000    1.125    3.500    0.000 
#    0.000    6.250    0.000    3.000    0.000    0.000 
#    0.000    0.000    0.000    0.000    0.000    0.000 
#
# Total GULP energy -89204.963434 kJ/mol
# GULP energy per Si atom -5575.310215 kJ/mol
# Density = 2.702857 g / cm^3
# Si number density = 27.090226 Si / 1000 Ang^3
#
#
#
# Elastic Constant Matrix: (Units=GPa)
#
#
# Indices 1 2 3 4 5 6 
#
# 1 83.0228 31.1245 4.6063 5.3087 -9.1693 25.8010
# 2 31.1245 157.9540 19.8244 22.9615 -2.0493 7.6414
# 3 4.6063 19.8244 102.6816 -16.9212 -13.8324 2.2280
# 4 5.3087 22.9615 -16.9212 62.6206 3.2739 -7.5330
# 5 -9.1693 -2.0493 -13.8324 3.2739 26.2739 -2.6451
# 6 25.8010 7.6414 2.2280 -7.5330 -2.6451 41.3691
#
#
#
# Elastic Compliance Matrix: (Units=1/GPa)
#
#
# Indices 1 2 3 4 5 6 
#
# 1 0.016766 -0.002520 0.000322 -0.001880 0.005049 -0.010028
# 2 -0.002520 0.007524 -0.001970 -0.003066 -0.000981 -0.000333
# 3 0.000322 -0.001970 0.011432 0.003558 0.005590 0.000552
# 4 -0.001880 -0.003066 0.003558 0.018853 -0.000875 0.004924
# 5 0.005049 -0.000981 0.005590 -0.000875 0.042728 -0.000696
# 6 -0.010028 -0.000333 0.000552 0.004924 -0.000696 0.031311
#
#
# Mechanical properties :
#
#
# Convention : Reuss Voigt Hill
#
# Bulk Modulus (GPa) = 36.51404 50.52988 43.52196
# Shear Modulus (GPa) = 34.22837 45.25960 39.74398
#
# Velocity S-wave (km/s) = 3.55842 4.09185 3.83443
# Velocity P-wave (km/s) = 5.51281 6.40447 5.97530
#
# Compressibility (1/GPa) = 0.02738673
#
# Stress axis : x y z
#
# Youngs Moduli (GPa) = 59.64419 132.91007 87.47309
#
# Poissons Ratio (x) = 0.33496 -0.02819
# Poissons Ratio (y) = 0.15031 0.17230
# Poissons Ratio (z) = -0.01922 0.26181
#
# Static dielectric constant tensor:
#      x y z
#    x 2.621610 -0.161800 -0.210810 
#    y -0.161800 2.147890 0.064470 
#    z -0.210810 0.064470 2.310480 
# 
# From -- ./inp_files/429027.got.cif
#   From: 2010.05.17/outbox.cif.g08.bks.cpg/sg2_215_cif.got.tgz:429027.got - 2010.06.03 11:33:40.
