data_PCOD9001627
_publ_section_title
;
Structure prediction by ZEFSAII (Michael W. Deem and Ramdas Pophale) SiO2 
 PCOD9001627
Probable space group: P -1
;
_chemical_formula_sum "Si O2"
_cell_formula_units_Z 16
_cell_length_a 11.202301
_cell_length_b 10.938114
_cell_length_c 6.411082
_cell_angle_alpha 90.526046
_cell_angle_beta 72.208663
_cell_angle_gamma 94.419619
_cell_volume 745.684318
_symmetry_space_group_name_H-M "P -1"
_symmetry_group_IT_number 2
_symmetry_cell_setting 'triclinic'
loop_
_space_group_symop_operation_xyz
x,y,z
-x,-y,-z
loop_
_atom_site_type_symbol
_atom_site_label
_atom_site_fract_x
_atom_site_fract_y
_atom_site_fract_z
Si Si1 0.371874 0.426408 0.990370
Si Si2 0.548575 0.316688 0.605241
Si Si3 0.760457 0.483505 0.295056
Si Si4 0.795340 0.709425 0.575966
Si Si5 0.413213 0.891359 0.747444
Si Si6 0.050304 0.636868 0.539616
Si Si7 0.744940 0.200656 0.789876
Si Si8 0.316853 0.036629 0.422899
O O1 0.417581 0.343281 0.776000
O O2 0.271504 0.507270 0.931611
O O3 0.500000 0.500000 0.000000
O O4 0.309105 0.351410 0.211744
O O5 0.629826 0.435332 0.476166
O O6 0.545357 0.218898 0.421761
O O7 0.629525 0.262942 0.744792
O O8 0.803966 0.614623 0.377018
O O9 0.859425 0.386316 0.311490
O O10 0.755754 0.841800 0.535721
O O11 0.927644 0.710999 0.628370
O O12 0.547970 0.942343 0.768001
O O13 0.356955 0.991582 0.629253
O O14 0.305061 0.838181 0.957931
O O15 0.135751 0.705492 0.316840
O O16 0.000000 0.500000 0.500000
O O17 0.760459 0.076256 0.649983
#
# Coordination Sequence:
#
# PCOD9001627 Si02
#       8
#     2   2   2   2   2   2   2   2
#     4  12  24  35  62  99 128 168 202 257 332 386
#     4  10  21  35  59  95 124 158 206 254 322 384
#     4  10  22  39  59  90 129 165 213 255 314 383
#     4  11  23  41  62  89 135 169 210 271 307 367
#     4  10  21  38  64  89 131 165 204 262 318 381
#     4   9  22  44  65  90 127 171 220 262 306 375
#     4  10  21  40  64  89 122 172 213 254 314 375
#     4  10  22  37  59  95 126 166 209 260 319 372
#
# _framework density 21.456800999999999
#
# number of rings (size 3 to 8) (size 9 to 14) (size 15 to 20)
#    0.000    1.750    1.250    2.250    3.500    4.000 
#    0.000    6.875    0.000    0.000    0.000    0.000 
#    0.000    0.000    0.000    0.000    0.000    0.000 
#
# Total GULP energy -89395.273747 kJ/mol
# GULP energy per Si atom -5587.204609 kJ/mol
# Density = 2.140796 g / cm^3
# Si number density = 21.456801 Si / 1000 Ang^3
#
#
#
# Elastic Constant Matrix: (Units=GPa)
#
#
# Indices 1 2 3 4 5 6 
#
# 1 99.8972 46.1075 19.9207 -9.1039 -1.3984 -5.7783
# 2 46.1075 113.6987 42.5441 -17.9729 -3.9743 -11.5306
# 3 19.9207 42.5441 46.8865 -17.6679 2.2377 3.8725
# 4 -9.1039 -17.9729 -17.6679 23.0751 3.4146 -3.7464
# 5 -1.3984 -3.9743 2.2377 3.4146 27.3701 -10.9720
# 6 -5.7783 -11.5306 3.8725 -3.7464 -10.9720 36.7581
#
#
#
# Elastic Compliance Matrix: (Units=1/GPa)
#
#
# Indices 1 2 3 4 5 6 
#
# 1 0.012377 -0.004405 -0.001078 0.000716 0.000332 0.000850
# 2 -0.004405 0.017180 -0.014328 0.001037 0.006636 0.008292
# 3 -0.001078 -0.014328 0.044990 0.023019 -0.013080 -0.010962
# 4 0.000716 0.001037 0.023019 0.063668 -0.008898 0.001846
# 5 0.000332 0.006636 -0.013080 -0.008898 0.046278 0.016418
# 6 0.000850 0.008292 -0.010962 0.001846 0.016418 0.036183
#
#
# Mechanical properties :
#
#
# Convention : Reuss Voigt Hill
#
# Bulk Modulus (GPa) = 28.63219 53.06967 40.85093
# Shear Modulus (GPa) = 18.38639 27.56801 22.97720
#
# Velocity S-wave (km/s) = 2.93047 3.58832 3.27595
# Velocity P-wave (km/s) = 4.98229 6.47727 5.77833
#
# Compressibility (1/GPa) = 0.03492573
#
# Stress axis : x y z
#
# Youngs Moduli (GPa) = 80.79225 58.20870 22.22694
#
# Poissons Ratio (x) = 0.25641 0.02396
# Poissons Ratio (y) = 0.35589 0.31846
# Poissons Ratio (z) = 0.08710 0.83400
#
# Static dielectric constant tensor:
#      x y z
#    x 1.829430 0.010460 0.040840 
#    y 0.010460 1.832790 0.017040 
#    z 0.040840 0.017040 1.804380 
# 
# From -- ./inp_files/69789.got.cif
#   From: 2010.05.17/outbox.cif.g08.bks.cpg/sg2_35_cif.got.tgz:69789.got - 2010.06.03 11:33:40.
