data_PCOD9001635
_publ_section_title
;
Structure prediction by ZEFSAII (Michael W. Deem and Ramdas Pophale) SiO2 
 PCOD9001635
Probable space group: P -1
;
_chemical_formula_sum "Si O2"
_cell_formula_units_Z 16
_cell_length_a 27.299726
_cell_length_b 5.231832
_cell_length_c 8.016598
_cell_angle_alpha 124.281420
_cell_angle_beta 139.368436
_cell_angle_gamma 66.344483
_cell_volume 615.350760
_symmetry_space_group_name_H-M "P -1"
_symmetry_group_IT_number 2
_symmetry_cell_setting 'triclinic'
loop_
_space_group_symop_operation_xyz
x,y,z
-x,-y,-z
loop_
_atom_site_type_symbol
_atom_site_label
_atom_site_fract_x
_atom_site_fract_y
_atom_site_fract_z
Si Si1 0.591975 0.265971 0.793495
Si Si2 0.472606 0.070089 0.176224
Si Si3 0.279619 0.579339 0.031323
Si Si4 0.055364 0.825860 0.440084
Si Si5 0.123095 0.270452 0.549769
Si Si6 0.900385 0.718971 0.867399
Si Si7 0.265519 0.183274 0.402628
Si Si8 0.356300 0.666790 0.589459
O O1 0.556542 0.083590 0.472597
O O2 0.548678 0.586929 0.806511
O O3 0.677071 0.370341 0.010036
O O4 0.575910 0.049236 0.829943
O O5 0.442331 0.800888 0.873877
O O6 0.337534 0.511639 0.305563
O O7 0.250054 0.914349 0.125231
O O8 0.211441 0.332421 0.773750
O O9 0.084999 0.601551 0.572281
O O10 0.077257 0.622440 0.255557
O O11 0.101660 0.131598 0.620565
O O12 0.965714 0.849090 0.206964
O O13 0.095533 0.118559 0.245606
O O14 0.815477 0.712165 0.711070
O O15 0.322286 0.440193 0.560047
O O16 0.308166 0.977664 0.573987
#
# Coordination Sequence:
#
# PCOD9001635 Si02
#       8
#     2   2   2   2   2   2   2   2
#     4  10  23  40  64  90 119 147 201 244 285 341
#     4  10  22  41  64  90 114 156 196 244 284 338
#     4  10  26  38  59  88 125 154 191 238 299 346
#     4   9  21  34  61  85 110 151 199 246 286 338
#     4  10  21  35  60  85 113 149 198 243 288 339
#     4   9  21  37  61  82 116 148 204 237 292 341
#     4  10  24  38  56  88 118 159 189 243 284 362
#     4  10  24  39  59  85 123 155 195 232 295 352
#
# _framework density 26.001429000000002
#
# number of rings (size 3 to 8) (size 9 to 14) (size 15 to 20)
#    1.500    0.750    0.000    1.125    8.750    0.500 
#    0.000    1.875    0.000    0.000    0.000    0.000 
#    0.000    0.000    0.000    0.000    0.000    0.000 
#
# Total GULP energy -89368.408468 kJ/mol
# GULP energy per Si atom -5585.525529 kJ/mol
# Density = 2.594225 g / cm^3
# Si number density = 26.001429 Si / 1000 Ang^3
#
#
#
# Elastic Constant Matrix: (Units=GPa)
#
#
# Indices 1 2 3 4 5 6 
#
# 1 96.9889 29.4420 -9.6929 -0.6906 21.4783 1.2615
# 2 29.4420 110.9040 9.0908 2.8349 10.0013 28.7285
# 3 -9.6929 9.0908 70.5264 -15.3183 13.4495 7.0465
# 4 -0.6906 2.8349 -15.3183 21.2894 7.4959 4.9224
# 5 21.4783 10.0013 13.4495 7.4959 39.0842 -1.1519
# 6 1.2615 28.7285 7.0465 4.9224 -1.1519 36.0384
#
#
#
# Elastic Compliance Matrix: (Units=1/GPa)
#
#
# Indices 1 2 3 4 5 6 
#
# 1 0.014718 -0.003465 0.007004 0.010273 -0.011608 -0.000897
# 2 -0.003465 0.012702 -0.000722 0.000509 -0.001490 -0.009981
# 3 0.007004 -0.000722 0.025358 0.026890 -0.017809 -0.008870
# 4 0.010273 0.000509 0.026890 0.081796 -0.031253 -0.018194
# 5 -0.011608 -0.001490 -0.017809 -0.031253 0.044786 0.010776
# 6 -0.000897 -0.009981 -0.008870 -0.018194 0.010776 0.040300
#
#
# Mechanical properties :
#
#
# Convention : Reuss Voigt Hill
#
# Bulk Modulus (GPa) = 17.11949 37.34433 27.23191
# Shear Modulus (GPa) = 21.41368 35.92102 28.66735
#
# Velocity S-wave (km/s) = 2.87288 3.72089 3.32404
# Velocity P-wave (km/s) = 4.19559 5.73181 5.02278
#
# Compressibility (1/GPa) = 0.05841297
#
# Stress axis : x y z
#
# Youngs Moduli (GPa) = 67.94589 78.72467 39.43587
#
# Poissons Ratio (x) = 0.27276 -0.27620
# Poissons Ratio (y) = 0.23541 0.02846
# Poissons Ratio (z) = -0.47588 0.05681
#
# Static dielectric constant tensor:
#      x y z
#    x 2.080450 -0.016930 -0.109430 
#    y -0.016930 1.997170 0.006170 
#    z -0.109430 0.006170 2.154210 
# 
# From -- ./inp_files/358176.got.cif
#   From: 2010.05.17/outbox.cif.g08.bks.cpg/sg2_180_cif.got.tgz:358176.got - 2010.06.03 11:33:40.
