data_PCOD9001029
_publ_section_title
;
Structure prediction by ZEFSAII (Michael W. Deem and Ramdas Pophale) SiO2 
 PCOD9001029
Probable space group: P -1
;
_chemical_formula_sum "Si O2"
_cell_formula_units_Z 14
_cell_length_a 5.500172
_cell_length_b 11.737994
_cell_length_c 9.852020
_cell_angle_alpha 65.663831
_cell_angle_beta 97.776983
_cell_angle_gamma 95.040824
_cell_volume 573.844689
_symmetry_space_group_name_H-M "P -1"
_symmetry_group_IT_number 2
_symmetry_cell_setting 'triclinic'
loop_
_space_group_symop_operation_xyz
x,y,z
-x,-y,-z
loop_
_atom_site_type_symbol
_atom_site_label
_atom_site_fract_x
_atom_site_fract_y
_atom_site_fract_z
Si Si1 0.312993 0.099354 0.993557
Si Si2 0.764649 0.468168 0.095096
Si Si3 0.962908 0.953133 0.248975
Si Si4 0.121041 0.712004 0.477507
Si Si5 0.259446 0.790130 0.887185
Si Si6 0.089857 0.631667 0.199467
Si Si7 0.392550 0.423191 0.402088
O O1 0.197144 0.135778 0.823346
O O2 0.463180 0.201433 0.040850
O O3 0.148432 0.020834 0.124857
O O4 0.500000 0.000000 0.000000
O O5 0.840362 0.551020 0.190997
O O6 0.500000 0.500000 0.000000
O O7 0.774418 0.317450 0.172743
O O8 0.000000 0.500000 0.000000
O O9 0.090868 0.861672 0.406466
O O10 0.815160 0.071814 0.232079
O O11 0.121140 0.674477 0.335300
O O12 0.385866 0.667147 0.572107
O O13 0.866982 0.649738 0.547510
O O14 0.114158 0.742937 0.036345
O O15 0.304031 0.532045 0.242071
O O16 0.500000 0.500000 0.500000
#
# Coordination Sequence:
#
# PCOD9001029 Si02
#       7
#     2   2   2   2   2   2   2
#     4   9  18  31  51  84 112 153 185 227 307 348
#     4  10  24  38  58  88 116 162 195 236 294 352
#     4  10  21  33  54  86 118 151 188 245 301 349
#     4  11  23  37  61  88 118 153 198 239 296 350
#     4  10  22  36  58  85 121 151 194 236 306 357
#     4  10  21  40  59  85 123 151 197 249 286 352
#     4  10  23  38  58  87 115 159 197 239 293 342
#
# _framework density 24.396844000000002
#
# number of rings (size 3 to 8) (size 9 to 14) (size 15 to 20)
#    0.000    2.000    0.000    4.286   14.000    4.571 
#    0.000    0.000    0.000    1.714    0.000    0.000 
#    0.000    0.000    0.000    0.000    0.000    0.000 
#
# Total GULP energy -78118.463755 kJ/mol
# GULP energy per Si atom -5579.890268 kJ/mol
# Density = 2.434132 g / cm^3
# Si number density = 24.396844 Si / 1000 Ang^3
#
#
#
# Elastic Constant Matrix: (Units=GPa)
#
#
# Indices 1 2 3 4 5 6 
#
# 1 131.1850 22.6192 45.1793 -20.4296 29.5385 -12.5175
# 2 22.6192 89.1804 36.6799 -23.8059 14.5014 -0.9052
# 3 45.1793 36.6799 74.0605 -32.3503 14.5099 -23.3070
# 4 -20.4296 -23.8059 -32.3503 53.6672 -16.3501 10.9991
# 5 29.5385 14.5014 14.5099 -16.3501 43.3839 -2.8189
# 6 -12.5175 -0.9052 -23.3070 10.9991 -2.8189 37.0823
#
#
#
# Elastic Compliance Matrix: (Units=1/GPa)
#
#
# Indices 1 2 3 4 5 6 
#
# 1 0.010824 0.000502 -0.006351 -0.001194 -0.005890 -0.000419
# 2 0.000502 0.015410 -0.008101 0.002610 -0.002155 -0.005485
# 3 -0.006351 -0.008101 0.029452 0.009475 0.001629 0.013483
# 4 -0.001194 0.002610 0.009475 0.027612 0.007045 -0.002039
# 5 -0.005890 -0.002155 0.001629 0.007045 0.029837 -0.000839
# 6 -0.000419 -0.005485 0.013483 -0.002039 -0.000839 0.035707
#
#
# Mechanical properties :
#
#
# Convention : Reuss Voigt Hill
#
# Bulk Modulus (GPa) = 35.99164 55.93140 45.96152
# Shear Modulus (GPa) = 26.88104 39.48985 33.18545
#
# Velocity S-wave (km/s) = 3.32298 4.02760 3.69214
# Velocity P-wave (km/s) = 5.43208 6.67864 6.08735
#
# Compressibility (1/GPa) = 0.02778423
#
# Stress axis : x y z
#
# Youngs Moduli (GPa) = 92.38819 64.89394 33.95363
#
# Poissons Ratio (x) = -0.03255 0.21563
# Poissons Ratio (y) = -0.04634 0.27508
# Poissons Ratio (z) = 0.58674 0.52574
#
# Static dielectric constant tensor:
#      x y z
#    x 2.038050 -0.026250 0.034480 
#    y -0.026250 1.982650 -0.004070 
#    z 0.034480 -0.004070 2.031760 
# 
# From -- ./inp_files/363919.got.cif
#   From: 2010.05.17/outbox.cif.g08.bks.cpg/sg2_182_cif.got.tgz:363919.got - 2010.06.03 11:33:40.
