data_PCOD9001563
_publ_section_title
;
Structure prediction by ZEFSAII (Michael W. Deem and Ramdas Pophale) SiO2 
 PCOD9001563
Probable space group: P -1
;
_chemical_formula_sum "Si O2"
_cell_formula_units_Z 14
_cell_length_a 28.913505
_cell_length_b 23.602982
_cell_length_c 14.510713
_cell_angle_alpha 22.271030
_cell_angle_beta 159.553992
_cell_angle_gamma 167.159568
_cell_volume 759.797567
_symmetry_space_group_name_H-M "P -1"
_symmetry_group_IT_number 2
_symmetry_cell_setting 'triclinic'
loop_
_space_group_symop_operation_xyz
x,y,z
-x,-y,-z
loop_
_atom_site_type_symbol
_atom_site_label
_atom_site_fract_x
_atom_site_fract_y
_atom_site_fract_z
Si Si1 0.981453 0.859325 0.096299
Si Si2 0.462672 0.728887 0.785632
Si Si3 0.703924 0.143196 0.051716
Si Si4 0.210491 0.791283 0.192255
Si Si5 0.718827 0.748131 0.097239
Si Si6 0.787109 0.234152 0.288777
Si Si7 0.960939 0.684018 0.708510
O O1 0.730691 0.554999 0.101664
O O2 0.152821 0.875975 0.401061
O O3 0.000000 0.000000 0.000000
O O4 0.070682 0.012293 0.937155
O O5 0.335470 0.749144 0.464789
O O6 0.614917 0.945570 0.822651
O O7 0.623029 0.786716 0.928080
O O8 0.741808 0.173972 0.185368
O O9 0.849966 0.147931 0.271183
O O10 0.799674 0.393311 0.825215
O O11 0.441726 0.902065 0.896241
O O12 0.001068 0.539860 0.242315
O O13 0.096146 0.770658 0.924206
O O14 0.810329 0.692709 0.411037
O O15 0.500000 0.500000 0.000000
#
# Coordination Sequence:
#
# PCOD9001563 Si02
#       7
#     2   2   2   2   2   2   2
#     4  11  21  36  59  88 121 152 195 243 300 351
#     4  10  23  43  62  86 122 157 200 245 292 355
#     4   9  18  32  57  86 116 146 198 246 288 343
#     4   9  21  43  62  82 118 161 197 244 291 349
#     4  12  24  37  62  92 120 157 193 246 305 349
#     4   9  18  34  57  85 112 154 195 242 291 343
#     4  10  21  35  58  88 118 154 194 244 296 349
#
# _framework density 18.425961999999998
#
# number of rings (size 3 to 8) (size 9 to 14) (size 15 to 20)
#    0.000    2.000    1.429    1.714    8.000    0.571 
#    5.143    2.857    0.000    0.000    0.000    0.000 
#    0.000    0.000    0.000    0.000    0.000    0.000 
#
# Total GULP energy -78042.107561 kJ/mol
# GULP energy per Si atom -5574.436254 kJ/mol
# Density = 1.838402 g / cm^3
# Si number density = 18.425962 Si / 1000 Ang^3
#
#
#
# Elastic Constant Matrix: (Units=GPa)
#
#
# Indices 1 2 3 4 5 6 
#
# 1 56.0782 20.4669 34.6273 -0.5706 12.6101 8.9137
# 2 20.4669 93.2924 46.2777 1.1654 5.0893 -10.8998
# 3 34.6273 46.2777 117.3013 10.4832 7.1133 1.5187
# 4 -0.5706 1.1654 10.4832 25.6809 3.8499 3.3927
# 5 12.6101 5.0893 7.1133 3.8499 26.0649 0.6536
# 6 8.9137 -10.8998 1.5187 3.3927 0.6536 18.9730
#
#
#
# Elastic Compliance Matrix: (Units=1/GPa)
#
#
# Indices 1 2 3 4 5 6 
#
# 1 0.028883 -0.004495 -0.006478 0.007479 -0.012017 -0.016557
# 2 -0.004495 0.015467 -0.004908 -0.000349 0.000259 0.011444
# 3 -0.006478 -0.004908 0.012766 -0.005357 0.001397 0.000112
# 4 0.007479 -0.000349 -0.005357 0.043990 -0.008313 -0.010865
# 5 -0.012017 0.000259 0.001397 -0.008313 0.044835 0.005625
# 6 -0.016557 0.011444 0.000112 -0.010865 0.005625 0.068800
#
#
# Mechanical properties :
#
#
# Convention : Reuss Voigt Hill
#
# Bulk Modulus (GPa) = 39.44140 52.15729 45.79934
# Shear Modulus (GPa) = 19.61134 25.16376 22.38755
#
# Velocity S-wave (km/s) = 3.26595 3.69950 3.48947
# Velocity P-wave (km/s) = 5.97275 6.82761 6.41444
#
# Compressibility (1/GPa) = 0.02535407
#
# Stress axis : x y z
#
# Youngs Moduli (GPa) = 34.62211 64.65407 78.33225
#
# Poissons Ratio (x) = 0.29064 0.50745
# Poissons Ratio (y) = 0.15564 0.38443
# Poissons Ratio (z) = 0.22429 0.31730
#
# Static dielectric constant tensor:
#      x y z
#    x 1.635900 0.039170 -0.020090 
#    y 0.039170 1.655740 -0.005810 
#    z -0.020090 -0.005810 1.640860 
# 
# From -- ./inp_files/168587.got.cif
#   From: 2010.05.17/outbox.cif.g08.bks.cpg/sg2_85_cif.got.tgz:168587.got - 2010.06.03 11:33:40.
