data_PCOD9001576
_publ_section_title
;
Structure prediction by ZEFSAII (Michael W. Deem and Ramdas Pophale) SiO2 
 PCOD9001576
Probable space group: P -1
;
_chemical_formula_sum "Si O2"
_cell_formula_units_Z 16
_cell_length_a 22.590082
_cell_length_b 13.990023
_cell_length_c 5.313826
_cell_angle_alpha 67.402541
_cell_angle_beta 111.327285
_cell_angle_gamma 155.818993
_cell_volume 634.703731
_symmetry_space_group_name_H-M "P -1"
_symmetry_group_IT_number 2
_symmetry_cell_setting 'triclinic'
loop_
_space_group_symop_operation_xyz
x,y,z
-x,-y,-z
loop_
_atom_site_type_symbol
_atom_site_label
_atom_site_fract_x
_atom_site_fract_y
_atom_site_fract_z
Si Si1 0.021649 0.869801 0.765731
Si Si2 0.773526 0.710348 0.012833
Si Si3 0.357782 0.064976 0.732297
Si Si4 0.359333 0.658761 0.060299
Si Si5 0.814802 0.239868 0.728646
Si Si6 0.011712 0.358694 0.703240
Si Si7 0.267222 0.541293 0.538933
Si Si8 0.741784 0.863345 0.504387
O O1 0.905099 0.716232 0.518578
O O2 0.175221 0.056567 0.695702
O O3 0.946937 0.671469 0.015688
O O4 0.079123 0.039878 0.877257
O O5 0.771131 0.618514 0.884154
O O6 0.706621 0.714379 0.778623
O O7 0.690301 0.518878 0.286790
O O8 0.298651 0.955735 0.470375
O O9 0.372028 0.210925 0.636961
O O10 0.499251 0.204259 0.856606
O O11 0.248673 0.869184 0.983630
O O12 0.344710 0.696451 0.257545
O O13 0.331240 0.684070 0.744326
O O14 0.875371 0.439331 0.534763
O O15 0.953525 0.368022 0.773794
O O16 0.871204 0.112214 0.593285
#
# Coordination Sequence:
#
# PCOD9001576 Si02
#       8
#     2   2   2   2   2   2   2   2
#     4  11  20  36  60  89 122 143 191 242 298 339
#     4   9  22  36  57  89 116 155 193 235 286 341
#     4  11  22  40  62  82 121 153 195 235 280 350
#     4  10  23  41  57  84 111 168 198 226 277 337
#     4  10  21  38  61  89 115 151 187 239 297 344
#     4   9  21  34  59  92 119 143 186 241 302 349
#     4  10  23  38  60  82 118 156 196 236 280 336
#     4  10  21  35  58  92 119 147 185 242 301 337
#
# _framework density 25.208613
#
# number of rings (size 3 to 8) (size 9 to 14) (size 15 to 20)
#    0.750    1.250    1.250    1.875    5.250    3.000 
#    0.000    1.250    0.000    4.500    0.000    0.000 
#    0.000    0.000    0.000    0.000    0.000    0.000 
#
# Total GULP energy -89287.592034 kJ/mol
# GULP energy per Si atom -5580.474502 kJ/mol
# Density = 2.515124 g / cm^3
# Si number density = 25.208613 Si / 1000 Ang^3
#
#
#
# Elastic Constant Matrix: (Units=GPa)
#
#
# Indices 1 2 3 4 5 6 
#
# 1 38.4644 9.4610 13.6764 9.8753 1.5680 8.0089
# 2 9.4610 50.3805 12.3461 22.0969 -2.0460 7.5257
# 3 13.6764 12.3461 125.2121 14.3588 -12.3650 0.9295
# 4 9.8753 22.0969 14.3588 28.0675 -0.4028 7.7788
# 5 1.5680 -2.0460 -12.3650 -0.4028 40.1650 -5.0831
# 6 8.0089 7.5257 0.9295 7.7788 -5.0831 31.2153
#
#
#
# Elastic Compliance Matrix: (Units=1/GPa)
#
#
# Indices 1 2 3 4 5 6 
#
# 1 0.030387 -0.001358 -0.002675 -0.006569 -0.002933 -0.006230
# 2 -0.001358 0.030497 -0.000070 -0.023194 0.001223 -0.001023
# 3 -0.002675 -0.000070 0.009051 -0.004134 0.003095 0.001968
# 4 -0.006569 -0.023194 -0.004134 0.060525 -0.002617 -0.008108
# 5 -0.002933 0.001223 0.003095 -0.002617 0.026679 0.005362
# 6 -0.006230 -0.001023 0.001968 -0.008108 0.005362 0.036716
#
#
# Mechanical properties :
#
#
# Convention : Reuss Voigt Hill
#
# Bulk Modulus (GPa) = 16.20053 31.66935 23.93494
# Shear Modulus (GPa) = 22.45809 31.79447 27.12628
#
# Velocity S-wave (km/s) = 2.98802 3.55527 3.28391
# Velocity P-wave (km/s) = 4.28309 5.42618 4.88816
#
# Compressibility (1/GPa) = 0.06172639
#
# Stress axis : x y z
#
# Youngs Moduli (GPa) = 32.90931 32.79032 110.48831
#
# Poissons Ratio (x) = 0.04453 0.29558
# Poissons Ratio (y) = 0.04470 0.00779
# Poissons Ratio (z) = 0.08804 0.00231
#
# Static dielectric constant tensor:
#      x y z
#    x 2.099510 0.015060 -0.029810 
#    y 0.015060 1.961170 0.015060 
#    z -0.029810 0.015060 2.032090 
# 
# From -- ./inp_files/98503.got.cif
#   From: 2010.05.17/outbox.cif.g08.bks.cpg/sg2_50_cif.got.tgz:98503.got - 2010.06.03 11:33:40.
