data_PCOD9001302
_publ_section_title
;
Structure prediction by ZEFSAII (Michael W. Deem and Ramdas Pophale) SiO2 
 PCOD9001302
Probable space group: P -1
;
_chemical_formula_sum "Si O2"
_cell_formula_units_Z 16
_cell_length_a 14.847529
_cell_length_b 5.639177
_cell_length_c 20.779396
_cell_angle_alpha 104.412062
_cell_angle_beta 28.557388
_cell_angle_gamma 111.613551
_cell_volume 762.239335
_symmetry_space_group_name_H-M "P -1"
_symmetry_group_IT_number 2
_symmetry_cell_setting 'triclinic'
loop_
_space_group_symop_operation_xyz
x,y,z
-x,-y,-z
loop_
_atom_site_type_symbol
_atom_site_label
_atom_site_fract_x
_atom_site_fract_y
_atom_site_fract_z
Si Si1 0.962224 0.922931 0.268190
Si Si2 0.669593 0.397030 0.415211
Si Si3 0.904636 0.936853 0.662838
Si Si4 0.715740 0.656019 0.961991
Si Si5 0.448107 0.977998 0.437536
Si Si6 0.362388 0.774807 0.118144
Si Si7 0.360083 0.006977 0.349442
Si Si8 0.431280 0.464818 0.232801
O O1 0.883819 0.612761 0.292081
O O2 0.756711 0.981841 0.407582
O O3 0.078673 0.037086 0.268521
O O4 0.100347 0.082110 0.136174
O O5 0.500000 0.500000 0.500000
O O6 0.602588 0.315920 0.525410
O O7 0.634593 0.149303 0.374055
O O8 0.746968 0.687739 0.714031
O O9 0.123565 0.965750 0.502791
O O10 0.799508 0.154791 0.731570
O O11 0.747593 0.454751 0.876695
O O12 0.522588 0.713357 0.058552
O O13 0.640363 0.527163 0.068415
O O14 0.459451 0.049264 0.360951
O O15 0.500000 0.000000 0.000000
O O16 0.395899 0.737316 0.289163
O O17 0.429811 0.258769 0.276426
#
# Coordination Sequence:
#
# PCOD9001302 Si02
#       8
#     2   2   2   2   2   2   2   2
#     4  10  21  34  61  97 119 159 204 277 324 380
#     4   9  19  39  66  96 121 145 195 276 353 378
#     4  11  22  40  63  90 130 170 223 265 314 365
#     4  11  23  36  58  90 128 175 221 261 319 373
#     4   9  21  40  65  96 120 153 202 274 338 379
#     4  11  20  38  59  84 126 173 219 281 316 353
#     4  11  27  41  66  91 129 180 223 260 303 388
#     4  12  25  43  58  90 136 189 220 250 300 377
#
# _framework density 20.990783
#
# number of rings (size 3 to 8) (size 9 to 14) (size 15 to 20)
#    0.000    1.500    2.500    2.250    7.000    2.000 
#    0.000    0.000    0.000    1.500    0.000    0.000 
#    0.000    0.000    0.000    0.000    0.000    0.000 
#
# Total GULP energy -89184.006194 kJ/mol
# GULP energy per Si atom -5574.000387 kJ/mol
# Density = 2.094301 g / cm^3
# Si number density = 20.990783 Si / 1000 Ang^3
#
#
#
# Elastic Constant Matrix: (Units=GPa)
#
#
# Indices 1 2 3 4 5 6 
#
# 1 111.8715 45.6927 33.5727 -25.1869 7.5172 -1.8548
# 2 45.6927 118.2891 56.0140 -17.0422 17.0733 -4.2234
# 3 33.5727 56.0140 79.5617 -24.2434 20.5081 7.7522
# 4 -25.1869 -17.0422 -24.2434 51.7500 -15.5784 2.9396
# 5 7.5172 17.0733 20.5081 -15.5784 23.3686 -1.2697
# 6 -1.8548 -4.2234 7.7522 2.9396 -1.2697 26.3412
#
#
#
# Elastic Compliance Matrix: (Units=1/GPa)
#
#
# Indices 1 2 3 4 5 6 
#
# 1 0.011785 -0.003350 -0.002212 0.004694 0.003759 0.000601
# 2 -0.003350 0.014305 -0.009158 -0.002264 -0.002581 0.004881
# 3 -0.002212 -0.009158 0.025611 0.004734 -0.012477 -0.010291
# 4 0.004694 -0.002264 0.004734 0.027558 0.014153 -0.003819
# 5 0.003759 -0.002581 -0.012477 0.014153 0.064127 0.005034
# 6 0.000601 0.004881 -0.010291 -0.003819 0.005034 0.042486
#
#
# Mechanical properties :
#
#
# Convention : Reuss Voigt Hill
#
# Bulk Modulus (GPa) = 44.91944 64.47571 54.69758
# Shear Modulus (GPa) = 22.44859 31.92148 27.18503
#
# Velocity S-wave (km/s) = 3.27379 3.90389 3.60265
# Velocity P-wave (km/s) = 5.97799 7.14866 6.58938
#
# Compressibility (1/GPa) = 0.02226208
#
# Stress axis : x y z
#
# Youngs Moduli (GPa) = 84.85396 69.90560 39.04580
#
# Poissons Ratio (x) = 0.23417 0.08636
# Poissons Ratio (y) = 0.28424 0.35757
# Poissons Ratio (z) = 0.18768 0.64018
#
# Static dielectric constant tensor:
#      x y z
#    x 1.824350 -0.091550 0.029180 
#    y -0.091550 2.013230 0.005360 
#    z 0.029180 0.005360 1.751080 
# 
# From -- ./inp_files/77314.got.cif
#   From: 2010.05.17/outbox.cif.g08.bks.cpg/sg2_39_cif.got.tgz:77314.got - 2010.06.03 11:33:40.
