data_PCOD9001296
_publ_section_title
;
Structure prediction by ZEFSAII (Michael W. Deem and Ramdas Pophale) SiO2 
 PCOD9001296
Probable space group: P -1
;
_chemical_formula_sum "Si O2"
_cell_formula_units_Z 15
_cell_length_a 11.300091
_cell_length_b 10.251895
_cell_length_c 9.365987
_cell_angle_alpha 81.410453
_cell_angle_beta 121.810504
_cell_angle_gamma 56.997211
_cell_volume 611.292374
_symmetry_space_group_name_H-M "P -1"
_symmetry_group_IT_number 2
_symmetry_cell_setting 'triclinic'
loop_
_space_group_symop_operation_xyz
x,y,z
-x,-y,-z
loop_
_atom_site_type_symbol
_atom_site_label
_atom_site_fract_x
_atom_site_fract_y
_atom_site_fract_z
Si Si1 0.601081 0.581168 0.835715
Si Si2 0.808705 0.037220 0.353778
Si Si3 0.241933 0.318467 0.873490
Si Si4 0.831507 0.971282 0.812375
Si Si5 0.500000 0.000000 0.500000
Si Si6 0.345353 0.130542 0.681901
Si Si7 0.086702 0.548595 0.159432
Si Si8 0.764246 0.178177 0.002108
O O1 0.367783 0.784837 0.682950
O O2 0.686396 0.582116 0.741434
O O3 0.727635 0.563444 0.047772
O O4 0.634963 0.402657 0.894859
O O5 0.732612 0.109743 0.130186
O O6 0.821051 0.872161 0.412800
O O7 0.000000 0.000000 0.500000
O O8 0.285003 0.277095 0.740450
O O9 0.017108 0.422303 0.762352
O O10 0.427865 0.096935 0.098311
O O11 0.993570 0.946831 0.832335
O O12 0.683263 0.980954 0.629831
O O13 0.977399 0.765918 0.024743
O O14 0.718750 0.138048 0.831810
O O15 0.381225 0.149066 0.541130
O O16 0.000000 0.500000 0.000000
#
# Coordination Sequence:
#
# PCOD9001296 Si02
#       8
#     2   2   2   2   1   2   2   2
#     4   9  20  34  64  94 119 168 215 258 314 385
#     4  11  22  38  61  90 130 164 208 264 321 382
#     4   9  17  35  61  94 116 156 212 259 309 374
#     4  10  21  36  63  90 123 172 209 261 316 379
#     4  12  22  36  60  98 130 154 216 272 318 372
#     4  10  21  34  61  92 122 159 207 260 319 373
#     4   9  16  33  59  90 122 157 210 255 306 378
#     4  10  21  40  63  89 126 173 221 248 315 400
#
# _framework density 24.538174999999999
#
# number of rings (size 3 to 8) (size 9 to 14) (size 15 to 20)
#    0.000    2.133    1.333    2.000    3.733    0.000 
#    0.000    0.000   11.733   16.000    0.000    0.000 
#    0.000    0.000    0.000    0.000    0.000    0.000 
#
# Total GULP energy -83638.935030 kJ/mol
# GULP energy per Si atom -5575.929002 kJ/mol
# Density = 2.448233 g / cm^3
# Si number density = 24.538175 Si / 1000 Ang^3
#
#
#
# Elastic Constant Matrix: (Units=GPa)
#
#
# Indices 1 2 3 4 5 6 
#
# 1 104.3933 10.4676 54.4057 27.3990 27.4185 -28.8565
# 2 10.4676 125.6096 52.1976 42.2997 12.9080 -23.7096
# 3 54.4057 52.1976 -2.7869 -11.1115 -14.7875 13.4508
# 4 27.3990 42.2997 -11.1115 17.4064 -16.6789 12.8836
# 5 27.4185 12.9080 -14.7875 -16.6789 18.6733 12.3037
# 6 -28.8565 -23.7096 13.4508 12.8836 12.3037 39.4413
#
#
#
# Elastic Compliance Matrix: (Units=1/GPa)
#
#
# Indices 1 2 3 4 5 6 
#
# 1 0.006051 -0.004056 0.003069 0.005326 0.002055 -0.001439
# 2 -0.004056 0.006214 0.003290 -0.000423 0.005073 -0.001798
# 3 0.003069 0.003290 0.022118 -0.025632 -0.019497 0.011136
# 4 0.005326 -0.000423 -0.025632 0.032520 0.000076 0.001737
# 5 0.002055 0.005073 -0.019497 0.000076 0.030576 0.001639
# 6 -0.001439 -0.001798 0.011136 0.001737 0.001639 0.018344
#
#
# Mechanical properties :
#
#
# Convention : Reuss Voigt Hill
#
# Bulk Modulus (GPa) = 25.64778 51.26197 38.45488
# Shear Modulus (GPa) = 40.25369 22.44719 31.35044
#
# Velocity S-wave (km/s) = 4.05464 3.02783 3.57826
# Velocity P-wave (km/s) = 5.69167 5.75844 5.72515
#
# Compressibility (1/GPa) = 0.03898973
#
# Stress axis : x y z
#
# Youngs Moduli (GPa) = 165.26678 160.93318 45.21155
#
# Poissons Ratio (x) = 0.65276 -0.13877
# Poissons Ratio (y) = 0.67034 -0.14876
# Poissons Ratio (z) = -0.50726 -0.52950
#
# Static dielectric constant tensor:
#      x y z
#    x 1.947930 -0.000500 -0.022880 
#    y -0.000500 1.930230 -0.043390 
#    z -0.022880 -0.043390 2.077590 
# 
# From -- ./inp_files/262562.got.cif
#   From: 2010.05.17/outbox.cif.g08.bks.cpg/sg2_132_cif.got.tgz:262562.got - 2010.06.03 11:33:40.
