data_PCOD9001666
_publ_section_title
;
Structure prediction by ZEFSAII (Michael W. Deem and Ramdas Pophale) SiO2 
 PCOD9001666
Probable space group: P -1
;
_chemical_formula_sum "Si O2"
_cell_formula_units_Z 12
_cell_length_a 4.987924
_cell_length_b 15.370262
_cell_length_c 9.011993
_cell_angle_alpha 117.419148
_cell_angle_beta 105.758453
_cell_angle_gamma 57.280650
_cell_volume 515.744495
_symmetry_space_group_name_H-M "P -1"
_symmetry_group_IT_number 2
_symmetry_cell_setting 'triclinic'
loop_
_space_group_symop_operation_xyz
x,y,z
-x,-y,-z
loop_
_atom_site_type_symbol
_atom_site_label
_atom_site_fract_x
_atom_site_fract_y
_atom_site_fract_z
Si Si1 0.416657 0.777931 0.700857
Si Si2 0.946720 0.362730 0.464707
Si Si3 0.520113 0.508737 0.259529
Si Si4 0.523128 0.823276 0.079197
Si Si5 0.331908 0.392678 0.919488
Si Si6 0.775465 0.972766 0.143537
O O1 0.178563 0.727749 0.641953
O O2 0.683616 0.701915 0.564249
O O3 0.262236 0.906847 0.728038
O O4 0.583038 0.771475 0.880656
O O5 0.777963 0.456983 0.387013
O O6 0.812168 0.424129 0.649069
O O7 0.557088 0.586756 0.205385
O O8 0.559369 0.403290 0.086658
O O9 0.651310 0.724559 0.140298
O O10 0.689204 0.900171 0.185902
O O11 0.138527 0.897243 0.086362
O O12 0.000000 0.500000 0.000000
O O13 0.500000 0.000000 0.000000
#
# Coordination Sequence:
#
# PCOD9001666 Si02
#       6
#     2   2   2   2   2   2
#     4  11  20  37  62  90 123 155 202 251 312 353
#     4  11  23  39  64  91 126 159 201 253 308 365
#     4  10  25  39  59  93 122 164 204 248 305 369
#     4  11  21  37  61  92 124 159 201 259 302 357
#     4  11  24  40  64  88 128 164 209 243 309 366
#     4  10  21  35  60  92 124 154 206 256 309 351
#
# _framework density 23.267334000000002
#
# number of rings (size 3 to 8) (size 9 to 14) (size 15 to 20)
#    0.000    1.333    1.667    6.000    7.000    1.333 
#    0.000    0.000    0.000    6.000    0.000    0.000 
#    0.000    0.000    0.000    0.000    0.000    0.000 
#
# Total GULP energy -67155.095897 kJ/mol
# GULP energy per Si atom -5596.257991 kJ/mol
# Density = 2.321438 g / cm^3
# Si number density = 23.267334 Si / 1000 Ang^3
#
#
#
# Elastic Constant Matrix: (Units=GPa)
#
#
# Indices 1 2 3 4 5 6 
#
# 1 98.2985 36.1065 33.1515 -1.5824 -16.4217 9.7237
# 2 36.1065 156.7151 51.1229 3.8161 -19.8079 39.5592
# 3 33.1515 51.1229 101.6068 -4.1038 -23.4403 4.2639
# 4 -1.5824 3.8161 -4.1038 27.8956 8.8587 -8.9497
# 5 -16.4217 -19.8079 -23.4403 8.8587 41.7743 11.3183
# 6 9.7237 39.5592 4.2639 -8.9497 11.3183 50.1908
#
#
#
# Elastic Compliance Matrix: (Units=1/GPa)
#
#
# Indices 1 2 3 4 5 6 
#
# 1 0.012271 -0.000636 -0.002661 -0.001894 0.004227 -0.002941
# 2 -0.000636 0.012431 -0.003792 -0.009354 0.009039 -0.013059
# 3 -0.002661 -0.003792 0.013511 0.001688 0.003897 0.001779
# 4 -0.001894 -0.009354 0.001688 0.050701 -0.020761 0.021319
# 5 0.004227 0.009039 0.003897 -0.020761 0.042304 -0.021516
# 6 -0.002941 -0.013059 0.001779 0.021319 -0.021516 0.039289
#
#
# Mechanical properties :
#
#
# Convention : Reuss Voigt Hill
#
# Bulk Modulus (GPa) = 41.60792 66.37581 53.99186
# Shear Modulus (GPa) = 25.94746 39.72143 32.83445
#
# Velocity S-wave (km/s) = 3.34307 4.13628 3.76065
# Velocity P-wave (km/s) = 5.72912 7.16946 6.48938
#
# Compressibility (1/GPa) = 0.02403389
#
# Stress axis : x y z
#
# Youngs Moduli (GPa) = 81.49305 80.44337 74.01612
#
# Poissons Ratio (x) = 0.05118 0.19699
# Poissons Ratio (y) = 0.05185 0.28065
# Poissons Ratio (z) = 0.21689 0.30502
#
# Static dielectric constant tensor:
#      x y z
#    x 1.951370 0.010380 0.076770 
#    y 0.010380 1.887960 -0.006200 
#    z 0.076770 -0.006200 1.906540 
# 
# From -- ./inp_files/99050.got.cif
#   From: 2010.05.17/outbox.cif.g08.bks.cpg/sg2_50_cif.got.tgz:99050.got - 2010.06.03 11:33:40.
