data_PCOD9001388
_publ_section_title
;
Structure prediction by ZEFSAII (Michael W. Deem and Ramdas Pophale) SiO2 
 PCOD9001388
Probable space group: P -1
;
_chemical_formula_sum "Si O2"
_cell_formula_units_Z 16
_cell_length_a 16.409873
_cell_length_b 17.626137
_cell_length_c 5.071075
_cell_angle_alpha 59.991676
_cell_angle_beta 112.514124
_cell_angle_gamma 138.364712
_cell_volume 843.767681
_symmetry_space_group_name_H-M "P -1"
_symmetry_group_IT_number 2
_symmetry_cell_setting 'triclinic'
loop_
_space_group_symop_operation_xyz
x,y,z
-x,-y,-z
loop_
_atom_site_type_symbol
_atom_site_label
_atom_site_fract_x
_atom_site_fract_y
_atom_site_fract_z
Si Si1 0.084845 0.865456 0.627289
Si Si2 0.193031 0.121422 0.473645
Si Si3 0.140853 0.600536 0.598482
Si Si4 0.829024 0.490679 0.682490
Si Si5 0.143732 0.191179 0.811845
Si Si6 0.334040 0.459127 0.454601
Si Si7 0.588037 0.613621 0.721524
Si Si8 0.085238 0.751248 0.348926
O O1 0.139713 0.848847 0.479160
O O2 0.962055 0.823056 0.423053
O O3 0.165198 0.002023 0.591348
O O4 0.061293 0.786974 0.986180
O O5 0.174664 0.138910 0.721770
O O6 0.329731 0.246962 0.346390
O O7 0.110190 0.121951 0.166579
O O8 0.211627 0.592794 0.479507
O O9 0.166459 0.721322 0.442860
O O10 0.000000 0.500000 0.500000
O O11 0.147663 0.559185 0.961234
O O12 0.734288 0.498170 0.651835
O O13 0.955113 0.626855 0.521030
O O14 0.260785 0.335618 0.751556
O O15 0.480354 0.572962 0.461917
O O16 0.323899 0.399864 0.270868
O O17 0.500000 0.500000 0.000000
#
# Coordination Sequence:
#
# PCOD9001388 Si02
#       8
#     2   2   2   2   2   2   2   2
#     4  12  22  34  55  81 111 154 188 219 272 344
#     4  11  23  37  53  77 112 152 190 230 270 322
#     4  10  21  35  54  82 117 148 174 233 279 337
#     4  11  21  35  57  84 114 146 188 218 284 341
#     4  11  21  35  53  77 115 144 189 224 273 326
#     4  10  22  34  58  83 108 153 182 232 278 330
#     4  10  21  39  56  78 115 145 190 238 279 306
#     4  11  21  36  55  82 117 149 182 224 282 333
#
# _framework density 18.962565000000001
#
# number of rings (size 3 to 8) (size 9 to 14) (size 15 to 20)
#    0.000    1.250    2.500    6.000    1.750    0.000 
#    0.000    0.000    0.000    0.000    0.000    5.250 
#    0.000    0.000    0.000    0.000    0.000    0.000 
#
# Total GULP energy -89214.212157 kJ/mol
# GULP energy per Si atom -5575.888260 kJ/mol
# Density = 1.891941 g / cm^3
# Si number density = 18.962565 Si / 1000 Ang^3
#
#
#
# Elastic Constant Matrix: (Units=GPa)
#
#
# Indices 1 2 3 4 5 6 
#
# 1 91.1460 30.7599 15.8558 -7.2093 8.9149 -25.8153
# 2 30.7599 100.7398 21.4781 -7.3936 9.1932 -17.7644
# 3 15.8558 21.4781 103.1898 4.4455 -1.1172 -14.2451
# 4 -7.2093 -7.3936 4.4455 22.8615 -11.6891 -3.5041
# 5 8.9149 9.1932 -1.1172 -11.6891 18.9117 -5.0859
# 6 -25.8153 -17.7644 -14.2451 -3.5041 -5.0859 31.0596
#
#
#
# Elastic Compliance Matrix: (Units=1/GPa)
#
#
# Indices 1 2 3 4 5 6 
#
# 1 0.015788 -0.002071 -0.000531 0.007014 0.001282 0.012695
# 2 -0.002071 0.012137 -0.001749 0.003451 -0.001675 0.004533
# 3 -0.000531 -0.001749 0.010715 -0.001273 0.001927 0.003645
# 4 0.007014 0.003451 -0.001273 0.075419 0.047896 0.023571
# 5 0.001282 -0.001675 0.001927 0.047896 0.088418 0.020873
# 6 0.012695 0.004533 0.003645 0.023571 0.020873 0.053090
#
#
# Mechanical properties :
#
#
# Convention : Reuss Voigt Hill
#
# Bulk Modulus (GPa) = 33.40108 47.91814 40.65961
# Shear Modulus (GPa) = 18.23165 29.69868 23.96516
#
# Velocity S-wave (km/s) = 3.10410 3.96179 3.55887
# Velocity P-wave (km/s) = 5.52265 6.80091 6.19484
#
# Compressibility (1/GPa) = 0.02993916
#
# Stress axis : x y z
#
# Youngs Moduli (GPa) = 63.34047 82.39002 93.32425
#
# Poissons Ratio (x) = 0.17064 0.04951
# Poissons Ratio (y) = 0.13118 0.16323
# Poissons Ratio (z) = 0.03360 0.14410
#
# Static dielectric constant tensor:
#      x y z
#    x 1.702420 -0.002010 -0.009540 
#    y -0.002010 1.760630 0.031850 
#    z -0.009540 0.031850 1.749530 
# 
# From -- ./inp_files/84337.got.cif
#   From: 2010.05.17/outbox.cif.g08.bks.cpg/sg2_43_cif.got.tgz:84337.got - 2010.06.03 11:33:40.
