data_PCOD9001360
_publ_section_title
;
Structure prediction by ZEFSAII (Michael W. Deem and Ramdas Pophale) SiO2 
 PCOD9001360
Probable space group: P -1
;
_chemical_formula_sum "Si O2"
_cell_formula_units_Z 10
_cell_length_a 7.519781
_cell_length_b 7.900962
_cell_length_c 13.234763
_cell_angle_alpha 132.759143
_cell_angle_beta 41.432532
_cell_angle_gamma 120.478050
_cell_volume 382.038362
_symmetry_space_group_name_H-M "P -1"
_symmetry_group_IT_number 2
_symmetry_cell_setting 'triclinic'
loop_
_space_group_symop_operation_xyz
x,y,z
-x,-y,-z
loop_
_atom_site_type_symbol
_atom_site_label
_atom_site_fract_x
_atom_site_fract_y
_atom_site_fract_z
Si Si1 0.782866 0.077312 0.017575
Si Si2 0.247373 0.228078 0.394296
Si Si3 0.337928 0.205471 0.781841
Si Si4 0.620780 0.636216 0.813522
Si Si5 0.207637 0.161179 0.597927
O O1 0.803602 0.813272 0.867192
O O2 0.077883 0.172190 0.947498
O O3 0.545864 0.116340 0.214334
O O4 0.650130 0.216213 0.035124
O O5 0.260413 0.403039 0.365739
O O6 0.187618 0.315003 0.567602
O O7 0.030938 0.028010 0.381409
O O8 0.539219 0.405476 0.810042
O O9 0.228747 0.276086 0.744475
O O10 0.516365 0.981245 0.593796
#
# Coordination Sequence:
#
# PCOD9001360 Si02
#       5
#     2   2   2   2   2
#     4   9  18  37  56  78 102 142 176 220 249 321
#     4   9  19  38  55  72 115 140 168 216 272 302
#     4  11  20  34  59  80 104 136 184 214 259 306
#     4   9  18  34  61  75 102 144 178 209 262 317
#     4  10  21  35  52  83 111 136 169 226 259 312
#
# _framework density 26.175381999999999
#
# number of rings (size 3 to 8) (size 9 to 14) (size 15 to 20)
#    1.200    1.200    2.000    0.600    0.000    2.400 
#    0.000    1.000    0.000    0.000    0.000    0.000 
#    0.000    0.000    0.000    0.000    0.000    0.000 
#
# Total GULP energy -55861.855449 kJ/mol
# GULP energy per Si atom -5586.185545 kJ/mol
# Density = 2.611581 g / cm^3
# Si number density = 26.175382 Si / 1000 Ang^3
#
#
#
# Elastic Constant Matrix: (Units=GPa)
#
#
# Indices 1 2 3 4 5 6 
#
# 1 64.5095 24.2341 50.3861 -14.9005 -2.5455 -3.1856
# 2 24.2341 59.7498 10.2568 -17.1499 -2.2279 34.5279
# 3 50.3861 10.2568 81.7324 -34.1051 -5.1207 7.6113
# 4 -14.9005 -17.1499 -34.1051 44.9735 2.2839 -8.1562
# 5 -2.5455 -2.2279 -5.1207 2.2839 42.2390 -0.9241
# 6 -3.1856 34.5279 7.6113 -8.1562 -0.9241 -12.5937
#
#
#
# Elastic Compliance Matrix: (Units=1/GPa)
#
#
# Indices 1 2 3 4 5 6 
#
# 1 0.028283 -0.001183 -0.019462 -0.008788 -0.000602 -0.016425
# 2 -0.001183 0.008166 0.000781 0.006696 0.000503 0.018787
# 3 -0.019462 0.000781 0.031335 0.019873 0.001877 0.012993
# 4 -0.008788 0.006696 0.019873 0.038335 0.000329 0.007740
# 5 -0.000602 0.000503 0.001877 0.000329 0.023890 0.000699
# 6 -0.016425 0.018787 0.012993 0.007740 0.000699 -0.020953
#
#
# Mechanical properties :
#
#
# Convention : Reuss Voigt Hill
#
# Bulk Modulus (GPa) = 35.64494 41.74953 38.69723
# Shear Modulus (GPa) = 31.61798 22.99806 27.30802
#
# Velocity S-wave (km/s) = 3.47930 2.96736 3.23347
# Velocity P-wave (km/s) = 5.45784 5.26544 5.36250
#
# Compressibility (1/GPa) = 0.02805447
#
# Stress axis : x y z
#
# Youngs Moduli (GPa) = 35.35726 122.45440 31.91277
#
# Poissons Ratio (x) = 0.14491 0.62109
# Poissons Ratio (y) = 0.04184 -0.02491
# Poissons Ratio (z) = 0.68813 -0.09559
#
# Static dielectric constant tensor:
#      x y z
#    x 2.113950 -0.069670 0.033110 
#    y -0.069670 2.030960 -0.032250 
#    z 0.033110 -0.032250 2.003470 
# 
# From -- ./inp_files/18411.got.cif
#   From: 2010.05.17/outbox.cif.g08.bks.cpg/sg2_10_cif.got.tgz:18411.got - 2010.06.03 11:33:40.
