data_PCOD9001202
_publ_section_title
;
Structure prediction by ZEFSAII (Michael W. Deem and Ramdas Pophale) SiO2 
 PCOD9001202
Probable space group: P -1
;
_chemical_formula_sum "Si O2"
_cell_formula_units_Z 12
_cell_length_a 8.589146
_cell_length_b 14.169997
_cell_length_c 9.422712
_cell_angle_alpha 54.242739
_cell_angle_beta 115.507445
_cell_angle_gamma 150.106682
_cell_volume 455.563040
_symmetry_space_group_name_H-M "P -1"
_symmetry_group_IT_number 2
_symmetry_cell_setting 'triclinic'
loop_
_space_group_symop_operation_xyz
x,y,z
-x,-y,-z
loop_
_atom_site_type_symbol
_atom_site_label
_atom_site_fract_x
_atom_site_fract_y
_atom_site_fract_z
Si Si1 0.427634 0.652797 0.846577
Si Si2 0.793879 0.468176 0.540259
Si Si3 0.033996 0.819767 0.913898
Si Si4 0.144499 0.256046 0.610470
Si Si5 0.434930 0.206839 0.904800
Si Si6 0.338151 0.076925 0.531684
O O1 0.744931 0.752765 0.847759
O O2 0.420594 0.761067 0.647299
O O3 0.137740 0.399591 0.938079
O O4 0.449890 0.711169 0.963781
O O5 0.968830 0.690996 0.405189
O O6 0.713722 0.387737 0.740397
O O7 0.000000 0.500000 0.500000
O O8 0.449437 0.254258 0.512739
O O9 0.248002 0.943631 0.746173
O O10 0.260838 0.991066 0.978593
O O11 0.500000 0.500000 0.500000
O O12 0.186286 0.170761 0.804123
O O13 0.953524 0.117633 0.517118
#
# Coordination Sequence:
#
# PCOD9001202 Si02
#       6
#     2   2   2   2   2   2
#     4  11  22  33  60  97 128 159 198 257 317 369
#     4  10  24  42  63  88 125 172 213 253 308 370
#     4  10  21  34  56  92 134 156 195 252 316 365
#     4  10  21  35  64  93 124 155 203 256 311 362
#     4  10  21  37  59  92 129 153 204 261 309 364
#     4  11  23  39  63  92 128 167 208 253 312 373
#
# _framework density 26.341028999999999
#
# number of rings (size 3 to 8) (size 9 to 14) (size 15 to 20)
#    0.000    1.667    1.667    3.000    9.333    0.667 
#    0.000    0.833    0.000    5.000    0.000    0.000 
#    0.000    0.000    0.000    0.000    0.000    0.000 
#
# Total GULP energy -66949.260272 kJ/mol
# GULP energy per Si atom -5579.105023 kJ/mol
# Density = 2.628108 g / cm^3
# Si number density = 26.341029 Si / 1000 Ang^3
#
#
#
# Elastic Constant Matrix: (Units=GPa)
#
#
# Indices 1 2 3 4 5 6 
#
# 1 98.6430 27.5092 41.6254 -0.1123 -7.7016 -15.8744
# 2 27.5092 196.8822 77.4877 -11.5460 -0.6070 -13.8499
# 3 41.6254 77.4877 177.9058 -5.4730 -27.3319 -16.2268
# 4 -0.1123 -11.5460 -5.4730 62.9326 -6.1473 -5.5554
# 5 -7.7016 -0.6070 -27.3319 -6.1473 26.8248 3.2989
# 6 -15.8744 -13.8499 -16.2268 -5.5554 3.2989 11.4575
#
#
#
# Elastic Compliance Matrix: (Units=1/GPa)
#
#
# Indices 1 2 3 4 5 6 
#
# 1 0.013588 -0.000024 -0.001449 0.001482 0.000639 0.017280
# 2 -0.000024 0.006640 -0.002841 0.001142 -0.003158 0.005433
# 3 -0.001449 -0.002841 0.009063 0.001593 0.008412 0.005744
# 4 0.001482 0.001142 0.001593 0.017836 0.004560 0.013025
# 5 0.000639 -0.003158 0.008412 0.004560 0.047306 -0.002427
# 6 0.017280 0.005433 0.005744 0.013025 -0.002427 0.132936
#
#
# Mechanical properties :
#
#
# Convention : Reuss Voigt Hill
#
# Bulk Modulus (GPa) = 48.39569 85.18619 66.79094
# Shear Modulus (GPa) = 20.58595 42.03023 31.30809
#
# Velocity S-wave (km/s) = 2.79859 3.99885 3.45130
# Velocity P-wave (km/s) = 5.37173 7.33015 6.42598
#
# Compressibility (1/GPa) = 0.02066300
#
# Stress axis : x y z
#
# Youngs Moduli (GPa) = 73.59420 150.60046 110.34259
#
# Poissons Ratio (x) = 0.00359 0.15990
# Poissons Ratio (y) = 0.00175 0.31348
# Poissons Ratio (z) = 0.10664 0.42785
#
# Static dielectric constant tensor:
#      x y z
#    x 2.519660 0.065680 0.071090 
#    y 0.065680 2.110830 -0.044900 
#    z 0.071090 -0.044900 2.051790 
# 
# From -- ./inp_files/182606.got.cif
#   From: 2010.05.17/outbox.cif.g08.bks.cpg/sg2_92_cif.got.tgz:182606.got - 2010.06.03 11:33:40.
