data_PCOD9001566
_publ_section_title
;
Structure prediction by ZEFSAII (Michael W. Deem and Ramdas Pophale) SiO2 
 PCOD9001566
Probable space group: P -1
;
_chemical_formula_sum "Si O2"
_cell_formula_units_Z 16
_cell_length_a 18.257604
_cell_length_b 11.108051
_cell_length_c 15.319643
_cell_angle_alpha 132.626729
_cell_angle_beta 160.098201
_cell_angle_gamma 48.864555
_cell_volume 775.422478
_symmetry_space_group_name_H-M "P -1"
_symmetry_group_IT_number 2
_symmetry_cell_setting 'triclinic'
loop_
_space_group_symop_operation_xyz
x,y,z
-x,-y,-z
loop_
_atom_site_type_symbol
_atom_site_label
_atom_site_fract_x
_atom_site_fract_y
_atom_site_fract_z
Si Si1 0.886092 0.249876 0.539639
Si Si2 0.478643 0.661219 0.497505
Si Si3 0.711875 0.748177 0.124186
Si Si4 0.826390 0.904700 0.056068
Si Si5 0.911014 0.080185 0.805882
Si Si6 0.437759 0.974588 0.031287
Si Si7 0.314802 0.117850 0.400729
Si Si8 0.453685 0.453538 0.677891
O O1 0.729893 0.123166 0.261175
O O2 0.760157 0.421414 0.509099
O O3 0.050566 0.276591 0.658774
O O4 0.014028 0.169924 0.726103
O O5 0.500000 0.500000 0.500000
O O6 0.262911 0.769587 0.337679
O O7 0.464705 0.612899 0.357113
O O8 0.688166 0.762585 0.793182
O O9 0.583143 0.841708 0.942868
O O10 0.662414 0.874637 0.210291
O O11 0.623388 0.575630 0.962700
O O12 0.962171 0.979452 0.168396
O O13 0.646472 0.021101 0.963122
O O14 0.770120 0.959449 0.643669
O O15 0.101263 0.133760 0.108444
O O16 0.405471 0.294377 0.600156
O O17 0.500000 0.000000 0.500000
#
# Coordination Sequence:
#
# PCOD9001566 Si02
#       8
#     2   2   2   2   2   2   2   2
#     4  10  21  35  58  89 120 161 197 241 298 362
#     4  12  24  35  55  92 131 156 187 241 310 370
#     4   9  18  32  55  79 113 156 189 242 293 340
#     4  11  21  35  56  87 124 156 199 242 300 361
#     4  11  24  39  61  83 116 170 199 250 297 344
#     4   9  19  36  54  86 120 158 202 237 292 367
#     4  11  23  44  61  80 117 161 221 247 285 354
#     4  11  22  35  56  86 119 151 203 244 290 356
#
# _framework density 20.633913
#
# number of rings (size 3 to 8) (size 9 to 14) (size 15 to 20)
#    0.000    1.500    2.500    3.750    3.500    5.000 
#    0.000    0.000    0.000    3.000    0.000   21.875 
#    0.000    0.000    0.000    0.000    0.000    0.000 
#
# Total GULP energy -89345.631349 kJ/mol
# GULP energy per Si atom -5584.101959 kJ/mol
# Density = 2.058695 g / cm^3
# Si number density = 20.633913 Si / 1000 Ang^3
#
#
#
# Elastic Constant Matrix: (Units=GPa)
#
#
# Indices 1 2 3 4 5 6 
#
# 1 149.8070 30.6859 7.7727 5.7508 36.0395 -1.5521
# 2 30.6859 67.5968 21.9929 24.2525 9.4181 14.6167
# 3 7.7727 21.9929 62.0502 5.6746 15.4770 12.5007
# 4 5.7508 24.2525 5.6746 27.0808 4.0496 6.6398
# 5 36.0395 9.4181 15.4770 4.0496 34.0529 2.6492
# 6 -1.5521 14.6167 12.5007 6.6398 2.6492 34.3701
#
#
#
# Elastic Compliance Matrix: (Units=1/GPa)
#
#
# Indices 1 2 3 4 5 6 
#
# 1 0.010266 -0.005725 0.002780 0.003522 -0.011125 0.002064
# 2 -0.005725 0.028167 -0.007267 -0.021767 0.004607 -0.005744
# 3 0.002780 -0.007267 0.021608 0.004147 -0.010888 -0.004605
# 4 0.003522 -0.021767 0.004147 0.056329 -0.006096 -0.002505
# 5 -0.011125 0.004607 -0.010888 -0.006096 0.045604 -0.000839
# 6 0.002064 -0.005744 -0.004605 -0.002505 -0.000839 0.033854
#
#
# Mechanical properties :
#
#
# Convention : Reuss Voigt Hill
#
# Bulk Modulus (GPa) = 25.24242 44.48410 34.86326
# Shear Modulus (GPa) = 21.79055 33.70095 27.74575
#
# Velocity S-wave (km/s) = 3.25323 4.04577 3.67095
# Velocity P-wave (km/s) = 5.13530 6.59013 5.90767
#
# Compressibility (1/GPa) = 0.03961586
#
# Stress axis : x y z
#
# Youngs Moduli (GPa) = 97.40779 35.50309 46.27984
#
# Poissons Ratio (x) = 0.20324 -0.12865
# Poissons Ratio (y) = 0.55763 0.33634
# Poissons Ratio (z) = -0.27079 0.25802
#
# Static dielectric constant tensor:
#      x y z
#    x 1.767350 -0.013450 0.021450 
#    y -0.013450 1.739510 -0.008070 
#    z 0.021450 -0.008070 1.773880 
# 
# From -- ./inp_files/538475.got.cif
#   From: 2010.05.17/outbox.cif.g08.bks.cpg/sg2_270_cif.got.tgz:538475.got - 2010.06.03 11:33:40.
