data_PCOD9001199
_publ_section_title
;
Structure prediction by ZEFSAII (Michael W. Deem and Ramdas Pophale) SiO2 
 PCOD9001199
Probable space group: P -1
;
_chemical_formula_sum "Si O2"
_cell_formula_units_Z 16
_cell_length_a 11.834940
_cell_length_b 7.947728
_cell_length_c 12.534497
_cell_angle_alpha 88.872643
_cell_angle_beta 46.644861
_cell_angle_gamma 70.092941
_cell_volume 765.506718
_symmetry_space_group_name_H-M "P -1"
_symmetry_group_IT_number 2
_symmetry_cell_setting 'triclinic'
loop_
_space_group_symop_operation_xyz
x,y,z
-x,-y,-z
loop_
_atom_site_type_symbol
_atom_site_label
_atom_site_fract_x
_atom_site_fract_y
_atom_site_fract_z
Si Si1 0.802054 0.636817 0.486952
Si Si2 0.196978 0.936754 0.333188
Si Si3 0.221100 0.981812 0.077103
Si Si4 0.152545 0.587522 0.321360
Si Si5 0.265215 0.408551 0.866456
Si Si6 0.653569 0.455933 0.984243
Si Si7 0.945442 0.378693 0.188753
Si Si8 0.508061 0.002506 0.736564
O O1 0.816902 0.527815 0.589572
O O2 0.861762 0.495818 0.349582
O O3 0.952869 0.700942 0.412486
O O4 0.611710 0.812388 0.603655
O O5 0.209017 0.024945 0.210650
O O6 0.240581 0.722380 0.284469
O O7 0.336340 0.960629 0.316085
O O8 0.000000 0.000000 0.500000
O O9 0.242332 0.769178 0.058126
O O10 0.047034 0.153322 0.141691
O O11 0.388939 0.977665 0.907590
O O12 0.236341 0.468617 0.162142
O O13 0.202326 0.550822 0.807180
O O14 0.374716 0.192414 0.761344
O O15 0.377577 0.450476 0.881822
O O16 0.094388 0.428724 0.041877
O O17 0.500000 0.500000 0.000000
#
# Coordination Sequence:
#
# PCOD9001199 Si02
#       8
#     2   2   2   2   2   2   2   2
#     4  11  21  37  60  88 129 160 205 251 312 371
#     4  11  20  36  59  93 128 159 206 258 316 370
#     4  10  23  38  63  92 125 166 209 257 315 372
#     4  10  21  34  56  91 123 160 198 255 311 368
#     4  10  22  41  63  89 125 167 214 260 310 368
#     4  11  21  39  64  94 126 157 209 263 315 366
#     4  10  22  41  62  89 126 170 213 254 309 381
#     4  11  23  37  61  92 126 167 206 262 311 371
#
# _framework density 20.901188999999999
#
# number of rings (size 3 to 8) (size 9 to 14) (size 15 to 20)
#    0.000    1.500    2.500    3.375    1.750    2.000 
#    0.000    0.000    0.000   10.500    0.000    0.000 
#    0.000    0.000    0.000    0.000    0.000    0.000 
#
# Total GULP energy -89081.100465 kJ/mol
# GULP energy per Si atom -5567.568779 kJ/mol
# Density = 2.085362 g / cm^3
# Si number density = 20.901189 Si / 1000 Ang^3
#
#
#
# Elastic Constant Matrix: (Units=GPa)
#
#
# Indices 1 2 3 4 5 6 
#
# 1 56.3764 20.8300 25.7888 6.0746 10.0838 -18.5862
# 2 20.8300 90.8991 46.4639 21.7740 14.0595 -18.9659
# 3 25.7888 46.4639 106.0996 30.3668 -5.8348 -9.5386
# 4 6.0746 21.7740 30.3668 36.6228 1.4025 -5.0647
# 5 10.0838 14.0595 -5.8348 1.4025 24.7334 -1.4619
# 6 -18.5862 -18.9659 -9.5386 -5.0647 -1.4619 27.1300
#
#
#
# Elastic Compliance Matrix: (Units=1/GPa)
#
#
# Indices 1 2 3 4 5 6 
#
# 1 0.028954 0.003053 -0.008519 0.003615 -0.014640 0.018861
# 2 0.003053 0.019816 -0.008138 -0.003401 -0.013543 0.011719
# 3 -0.008519 -0.008138 0.018064 -0.010090 0.012556 -0.006381
# 4 0.003615 -0.003401 -0.010090 0.037710 -0.003859 0.003383
# 5 -0.014640 -0.013543 0.012556 -0.003859 0.056525 -0.012758
# 6 0.018861 0.011719 -0.006381 0.003383 -0.012758 0.055674
#
#
# Mechanical properties :
#
#
# Convention : Reuss Voigt Hill
#
# Bulk Modulus (GPa) = 25.23514 48.83783 37.03648
# Shear Modulus (GPa) = 19.44322 28.38340 23.91331
#
# Velocity S-wave (km/s) = 3.05330 3.68908 3.38614
# Velocity P-wave (km/s) = 4.95277 6.44690 5.74858
#
# Compressibility (1/GPa) = 0.03962729
#
# Stress axis : x y z
#
# Youngs Moduli (GPa) = 34.53775 50.46485 55.35769
#
# Poissons Ratio (x) = -0.15409 0.47158
# Poissons Ratio (y) = -0.10546 0.45050
# Poissons Ratio (z) = 0.29422 0.41068
#
# Static dielectric constant tensor:
#      x y z
#    x 1.806950 0.004260 -0.009040 
#    y 0.004260 1.835430 0.156080 
#    z -0.009040 0.156080 2.141580 
# 
# From -- ./inp_files/419347.got.cif
#   From: 2010.05.17/outbox.cif.g08.bks.cpg/sg2_210_cif.got.tgz:419347.got - 2010.06.03 11:33:40.
