data_PCOD9001034
_publ_section_title
;
Structure prediction by ZEFSAII (Michael W. Deem and Ramdas Pophale) SiO2 
 PCOD9001034
Probable space group: P -1
;
_chemical_formula_sum "Si O2"
_cell_formula_units_Z 16
_cell_length_a 17.071724
_cell_length_b 12.676439
_cell_length_c 11.323346
_cell_angle_alpha 144.702739
_cell_angle_beta 28.535117
_cell_angle_gamma 135.776699
_cell_volume 676.383962
_symmetry_space_group_name_H-M "P -1"
_symmetry_group_IT_number 2
_symmetry_cell_setting 'triclinic'
loop_
_space_group_symop_operation_xyz
x,y,z
-x,-y,-z
loop_
_atom_site_type_symbol
_atom_site_label
_atom_site_fract_x
_atom_site_fract_y
_atom_site_fract_z
Si Si1 0.170600 0.006092 0.875659
Si Si2 0.412352 0.321009 0.806909
Si Si3 0.678198 0.045260 0.108356
Si Si4 0.561056 0.268296 0.824392
Si Si5 0.873872 0.858409 0.242323
Si Si6 0.229135 0.844777 0.165649
Si Si7 0.107276 0.454109 0.925542
Si Si8 0.577066 0.699516 0.589072
O O1 0.227662 0.990334 0.925859
O O2 0.277474 0.852047 0.525645
O O3 0.244228 0.203433 0.921089
O O4 0.979273 0.952810 0.089404
O O5 0.555148 0.214629 0.450365
O O6 0.476338 0.306338 0.844557
O O7 0.402149 0.535955 0.986754
O O8 0.782066 0.095572 0.901575
O O9 0.565144 0.868387 0.069360
O O10 0.972534 0.683140 0.000832
O O11 0.690076 0.773484 0.398196
O O12 0.852340 0.010939 0.509826
O O13 0.155413 0.644001 0.094383
O O14 0.421460 0.826357 0.927539
O O15 0.269893 0.342561 0.565639
O O16 0.000000 0.500000 0.000000
O O17 0.500000 0.500000 0.500000
#
# Coordination Sequence:
#
# PCOD9001034 Si02
#       8
#     2   2   2   2   2   2   2   2
#     4   9  17  30  46  79 105 133 176 227 264 307
#     4   8  15  30  49  69 101 141 175 217 269 314
#     4   9  18  28  48  76 107 135 178 219 259 317
#     4   8  15  30  49  68 102 141 175 216 270 314
#     4  10  21  33  55  77 109 146 181 215 269 320
#     4  11  20  35  54  77 113 150 178 214 264 330
#     4   9  20  34  51  78 109 138 178 227 263 306
#     4   8  19  39  54  69 106 152 187 213 258 324
#
# _framework density 23.655204000000001
#
# number of rings (size 3 to 8) (size 9 to 14) (size 15 to 20)
#    0.750    2.250    0.000    2.625    0.000    4.000 
#    0.000    2.500    0.000    3.000    0.000    1.750 
#    0.000    0.000    0.000    0.000    0.000    0.000 
#
# Total GULP energy -89258.360193 kJ/mol
# GULP energy per Si atom -5578.647512 kJ/mol
# Density = 2.360136 g / cm^3
# Si number density = 23.655204 Si / 1000 Ang^3
#
#
#
# Elastic Constant Matrix: (Units=GPa)
#
#
# Indices 1 2 3 4 5 6 
#
# 1 40.1638 14.0987 8.5186 -1.2799 -3.3867 -7.8608
# 2 14.0987 207.3425 70.3575 9.4148 28.1946 11.5743
# 3 8.5186 70.3575 53.1388 -11.2882 14.5282 -2.0601
# 4 -1.2799 9.4148 -11.2882 37.4200 -2.7381 0.1599
# 5 -3.3867 28.1946 14.5282 -2.7381 35.5753 -10.4765
# 6 -7.8608 11.5743 -2.0601 0.1599 -10.4765 37.7324
#
#
#
# Elastic Compliance Matrix: (Units=1/GPa)
#
#
# Indices 1 2 3 4 5 6 
#
# 1 0.029098 -0.002928 -0.002551 0.001581 0.008996 0.009312
# 2 -0.002928 0.011890 -0.015662 -0.008220 -0.005917 -0.006720
# 3 -0.002551 -0.015662 0.044648 0.017074 -0.003043 0.005793
# 4 0.001581 -0.008220 0.017074 0.034248 0.003703 0.004666
# 5 0.008996 -0.005917 -0.003043 0.003703 0.039441 0.014459
# 6 0.009312 -0.006720 0.005793 0.004666 0.014459 0.034815
#
#
# Mechanical properties :
#
#
# Convention : Reuss Voigt Hill
#
# Bulk Modulus (GPa) = 23.06536 54.06608 38.56572
# Shear Modulus (GPa) = 19.93043 35.99023 27.96033
#
# Velocity S-wave (km/s) = 2.90580 3.90481 3.44174
# Velocity P-wave (km/s) = 4.58585 6.57538 5.66858
#
# Compressibility (1/GPa) = 0.04335505
#
# Stress axis : x y z
#
# Youngs Moduli (GPa) = 34.36615 84.10698 22.39741
#
# Poissons Ratio (x) = 0.24627 0.05713
# Poissons Ratio (y) = 0.10062 0.35078
# Poissons Ratio (z) = 0.08766 1.31727
#
# Static dielectric constant tensor:
#      x y z
#    x 2.052990 0.013310 -0.007080 
#    y 0.013310 1.945300 -0.004720 
#    z -0.007080 -0.004720 1.901510 
# 
# From -- ./inp_files/432830.got.cif
#   From: 2010.05.17/outbox.cif.g08.bks.cpg/sg2_217_cif.got.tgz:432830.got - 2010.06.03 11:33:40.
