data_PCOD9001587
_publ_section_title
;
Structure prediction by ZEFSAII (Michael W. Deem and Ramdas Pophale) SiO2 
 PCOD9001587
Probable space group: P -1
;
_chemical_formula_sum "Si O2"
_cell_formula_units_Z 16
_cell_length_a 9.241436
_cell_length_b 14.592066
_cell_length_c 7.757989
_cell_angle_alpha 117.044289
_cell_angle_beta 72.962397
_cell_angle_gamma 140.289225
_cell_volume 592.357642
_symmetry_space_group_name_H-M "P -1"
_symmetry_group_IT_number 2
_symmetry_cell_setting 'triclinic'
loop_
_space_group_symop_operation_xyz
x,y,z
-x,-y,-z
loop_
_atom_site_type_symbol
_atom_site_label
_atom_site_fract_x
_atom_site_fract_y
_atom_site_fract_z
Si Si1 0.578046 0.676255 0.614069
Si Si2 0.429352 0.627196 0.137314
Si Si3 0.783768 0.666630 0.855037
Si Si4 0.404748 0.061927 0.650336
Si Si5 0.018469 0.150378 0.616614
Si Si6 0.883891 0.008461 0.896872
Si Si7 0.797712 0.249487 0.883864
Si Si8 0.160922 0.529495 0.786336
O O1 0.668093 0.640445 0.693016
O O2 0.652902 0.827283 0.789933
O O3 0.306682 0.551155 0.606637
O O4 0.724669 0.723976 0.434977
O O5 0.279552 0.479209 0.186448
O O6 0.507774 0.779815 0.304746
O O7 0.649099 0.672417 0.042242
O O8 0.294427 0.571232 0.954565
O O9 0.042731 0.841214 0.926995
O O10 0.524443 0.114085 0.840953
O O11 0.500000 0.000000 0.500000
O O12 0.145582 0.933210 0.566556
O O13 0.924563 0.206104 0.791763
O O14 0.029842 0.952698 0.299484
O O15 0.000000 0.000000 0.000000
O O16 0.913077 0.358827 0.764233
O O17 0.850294 0.353271 0.109637
#
# Coordination Sequence:
#
# PCOD9001587 Si02
#       8
#     2   2   2   2   2   2   2   2
#     4  10  21  35  58  95 130 157 204 272 337 384
#     4   9  16  31  56  85 121 167 214 256 310 377
#     4   9  18  32  55  88 123 162 205 258 317 381
#     4   9  19  35  59  88 124 174 220 260 316 383
#     4  11  21  37  62  94 127 165 208 268 334 384
#     4  10  21  38  60  91 128 165 210 264 328 398
#     4   9  19  36  61  87 125 175 218 256 307 384
#     4   9  18  36  60  89 125 170 217 263 313 381
#
# _framework density 27.010705999999999
#
# number of rings (size 3 to 8) (size 9 to 14) (size 15 to 20)
#    0.000    2.500    0.000    1.875    0.000    3.500 
#    0.000    1.875    0.000   23.250    0.000    0.875 
#    0.000    0.000    0.000    0.000    0.000    0.000 
#
# Total GULP energy -89184.958668 kJ/mol
# GULP energy per Si atom -5574.059917 kJ/mol
# Density = 2.694923 g / cm^3
# Si number density = 27.010706 Si / 1000 Ang^3
#
#
#
# Elastic Constant Matrix: (Units=GPa)
#
#
# Indices 1 2 3 4 5 6 
#
# 1 106.6385 44.0319 52.4722 -13.7984 -27.3894 12.5185
# 2 44.0319 113.9832 44.0544 -10.7859 -15.9812 -3.3854
# 3 52.4722 44.0544 120.6548 -11.3797 -19.5323 -14.2416
# 4 -13.7984 -10.7859 -11.3797 53.5436 -10.2306 0.0797
# 5 -27.3894 -15.9812 -19.5323 -10.2306 44.6066 4.2625
# 6 12.5185 -3.3854 -14.2416 0.0797 4.2625 47.5876
#
#
#
# Elastic Compliance Matrix: (Units=1/GPa)
#
#
# Indices 1 2 3 4 5 6 
#
# 1 0.016773 -0.003072 -0.005210 0.004242 0.008555 -0.006963
# 2 -0.003072 0.011181 -0.002328 0.001214 0.001303 0.000788
# 3 -0.005210 -0.002328 0.012238 0.000992 0.001098 0.004767
# 4 0.004242 0.001214 0.000992 0.021878 0.008639 -0.001543
# 5 0.008555 0.001303 0.001098 0.008639 0.031042 -0.004624
# 6 -0.006963 0.000788 0.004767 -0.001543 -0.004624 0.024745
#
#
# Mechanical properties :
#
#
# Convention : Reuss Voigt Hill
#
# Bulk Modulus (GPa) = 52.70848 69.15483 60.93165
# Shear Modulus (GPa) = 34.38792 42.52875 38.45834
#
# Velocity S-wave (km/s) = 3.57195 3.97232 3.77745
# Velocity P-wave (km/s) = 6.04716 6.83355 6.45235
#
# Compressibility (1/GPa) = 0.01897228
#
# Stress axis : x y z
#
# Youngs Moduli (GPa) = 59.61937 89.44064 81.71395
#
# Poissons Ratio (x) = 0.27474 0.42571
# Poissons Ratio (y) = 0.18314 0.19023
# Poissons Ratio (z) = 0.31061 0.20822
#
# Static dielectric constant tensor:
#      x y z
#    x 2.140220 -0.010770 -0.019590 
#    y -0.010770 2.195410 0.085570 
#    z -0.019590 0.085570 2.159830 
# 
# From -- ./inp_files/434971.got.cif
#   From: 2010.05.17/outbox.cif.g08.bks.cpg/sg2_218_cif.got.tgz:434971.got - 2010.06.03 11:33:40.
