data_PCOD9001568
_publ_section_title
;
Structure prediction by ZEFSAII (Michael W. Deem and Ramdas Pophale) SiO2 
 PCOD9001568
Probable space group: P -1
;
_chemical_formula_sum "Si O2"
_cell_formula_units_Z 16
_cell_length_a 7.881606
_cell_length_b 13.275980
_cell_length_c 10.631840
_cell_angle_alpha 90.308799
_cell_angle_beta 47.713802
_cell_angle_gamma 66.367482
_cell_volume 689.070917
_symmetry_space_group_name_H-M "P -1"
_symmetry_group_IT_number 2
_symmetry_cell_setting 'triclinic'
loop_
_space_group_symop_operation_xyz
x,y,z
-x,-y,-z
loop_
_atom_site_type_symbol
_atom_site_label
_atom_site_fract_x
_atom_site_fract_y
_atom_site_fract_z
Si Si1 0.611828 0.834066 0.855420
Si Si2 0.295455 0.198142 0.660085
Si Si3 0.194978 0.637586 0.566993
Si Si4 0.709752 0.290417 0.927972
Si Si5 0.121814 0.426350 0.617190
Si Si6 0.451235 0.520197 0.196253
Si Si7 0.265020 0.094538 0.933205
Si Si8 0.338916 0.778965 0.690388
O O1 0.911642 0.743442 0.648874
O O2 0.445050 0.951057 0.853421
O O3 0.434776 0.777144 0.964069
O O4 0.669583 0.864683 0.967152
O O5 0.184290 0.339991 0.704639
O O6 0.340285 0.143752 0.775445
O O7 0.566176 0.145264 0.437274
O O8 0.032008 0.201522 0.736492
O O9 0.131063 0.540740 0.646166
O O10 0.428450 0.565048 0.347634
O O11 0.275292 0.701458 0.627329
O O12 0.546232 0.384740 0.897216
O O13 0.678417 0.382377 0.053725
O O14 0.371503 0.330636 0.400169
O O15 0.838293 0.463774 0.694989
O O16 0.941354 0.143549 0.093338
#
# Coordination Sequence:
#
# PCOD9001568 Si02
#       8
#     2   2   2   2   2   2   2   2
#     4  10  23  40  64  88 116 156 211 243 290 360
#     4   9  22  39  61  86 121 160 197 247 298 355
#     4  11  20  37  61  91 118 158 195 249 304 352
#     4  10  21  39  56  91 122 155 201 241 295 367
#     4   9  19  37  56  90 121 148 198 246 291 371
#     4  10  21  35  58  89 126 156 190 244 303 359
#     4  10  22  45  62  85 121 162 199 257 289 340
#     4   9  22  39  58  91 120 154 202 244 297 358
#
# _framework density 23.219670000000001
#
# number of rings (size 3 to 8) (size 9 to 14) (size 15 to 20)
#    0.750    1.500    1.250    0.750    3.500    0.500 
#    2.250    5.625    0.000    0.000    0.000    0.000 
#    0.000    0.000    0.000    0.000    0.000    0.000 
#
# Total GULP energy -89312.789823 kJ/mol
# GULP energy per Si atom -5582.049364 kJ/mol
# Density = 2.316682 g / cm^3
# Si number density = 23.219670 Si / 1000 Ang^3
#
#
#
# Elastic Constant Matrix: (Units=GPa)
#
#
# Indices 1 2 3 4 5 6 
#
# 1 58.7740 17.3107 7.9716 0.9762 -7.1505 -6.1103
# 2 17.3107 119.3507 39.8072 -7.0419 -0.2927 -20.7376
# 3 7.9716 39.8072 86.1029 -9.4623 -13.5159 -3.6463
# 4 0.9762 -7.0419 -9.4623 30.4417 -12.4362 -1.5034
# 5 -7.1505 -0.2927 -13.5159 -12.4362 27.2583 0.8133
# 6 -6.1103 -20.7376 -3.6463 -1.5034 0.8133 22.6596
#
#
#
# Elastic Compliance Matrix: (Units=1/GPa)
#
#
# Indices 1 2 3 4 5 6 
#
# 1 0.018582 -0.002252 0.000507 0.001517 0.005707 0.002927
# 2 -0.002252 0.012282 -0.005546 0.000302 -0.003366 0.009881
# 3 0.000507 -0.005546 0.017044 0.009101 0.012738 -0.002050
# 4 0.001517 0.000302 0.009101 0.046542 0.026020 0.004304
# 5 0.005707 -0.003366 0.012738 0.026020 0.056328 0.000213
# 6 0.002927 0.009881 -0.002050 0.004304 0.000213 0.053911
#
#
# Mechanical properties :
#
#
# Convention : Reuss Voigt Hill
#
# Bulk Modulus (GPa) = 30.00707 43.82294 36.91500
# Shear Modulus (GPa) = 21.70324 29.34781 25.52552
#
# Velocity S-wave (km/s) = 3.06059 3.55902 3.31918
# Velocity P-wave (km/s) = 5.04389 5.98356 5.53371
#
# Compressibility (1/GPa) = 0.03332548
#
# Stress axis : x y z
#
# Youngs Moduli (GPa) = 53.81475 81.42253 58.67119
#
# Poissons Ratio (x) = 0.18339 -0.02976
# Poissons Ratio (y) = 0.12121 0.32540
# Poissons Ratio (z) = -0.02730 0.45159
#
# Static dielectric constant tensor:
#      x y z
#    x 1.903550 -0.023260 0.020480 
#    y -0.023260 1.868780 -0.012150 
#    z 0.020480 -0.012150 1.977240 
# 
# From -- ./inp_files/397335.got.cif
#   From: 2010.05.17/outbox.cif.g08.bks.cpg/sg2_199_cif.got.tgz:397335.got - 2010.06.03 11:33:40.
