data_PCOD9001837
_publ_section_title
;
Structure prediction by ZEFSAII (Michael W. Deem and Ramdas Pophale) SiO2 
 PCOD9001837
Probable space group: P -1
;
_chemical_formula_sum "Si O2"
_cell_formula_units_Z 14
_cell_length_a 13.625046
_cell_length_b 6.935206
_cell_length_c 10.908262
_cell_angle_alpha 84.562368
_cell_angle_beta 116.803898
_cell_angle_gamma 138.140378
_cell_volume 561.381187
_symmetry_space_group_name_H-M "P -1"
_symmetry_group_IT_number 2
_symmetry_cell_setting 'triclinic'
loop_
_space_group_symop_operation_xyz
x,y,z
-x,-y,-z
loop_
_atom_site_type_symbol
_atom_site_label
_atom_site_fract_x
_atom_site_fract_y
_atom_site_fract_z
Si Si1 0.383874 0.243353 0.058175
Si Si2 0.099391 0.155053 0.864655
Si Si3 0.218647 0.876139 0.497111
Si Si4 0.248248 0.591359 0.331998
Si Si5 0.159354 0.596712 0.026844
Si Si6 0.163609 0.457671 0.642007
Si Si7 0.373312 0.489380 0.585436
O O1 0.490920 0.348108 0.236037
O O2 0.279728 0.899167 0.988550
O O3 0.500000 0.500000 0.000000
O O4 0.231150 0.188147 0.000361
O O5 0.197773 0.388421 0.789056
O O6 0.068744 0.291988 0.926925
O O7 0.922110 0.792906 0.747981
O O8 0.195936 0.707477 0.375951
O O9 0.274472 0.801960 0.640136
O O10 0.032888 0.722957 0.440800
O O11 0.342671 0.234225 0.530308
O O12 0.278702 0.690342 0.202805
O O13 0.403187 0.684968 0.482048
O O14 0.000000 0.500000 0.000000
O O15 0.201099 0.351910 0.563808
#
# Coordination Sequence:
#
# PCOD9001837 Si02
#       7
#     2   2   2   2   2   2   2
#     4  12  29  47  72 111 152 187 237 299 373 429
#     4  12  25  44  77 105 145 189 249 302 350 431
#     4  10  22  36  70 103 145 185 240 299 356 417
#     4  11  25  45  73 107 137 193 253 289 352 436
#     4  12  28  49  78 105 143 196 250 297 357 428
#     4  10  21  35  66 105 138 184 241 289 357 419
#     4  11  24  43  67 104 149 186 234 301 363 428
#
# _framework density 24.938493999999999
#
# number of rings (size 3 to 8) (size 9 to 14) (size 15 to 20)
#    0.000    0.857    4.286    1.714    6.000    3.429 
#    0.000    1.429    0.000    0.000    0.000    0.000 
#    0.000    0.000    0.000    0.000    0.000    0.000 
#
# Total GULP energy -78325.232440 kJ/mol
# GULP energy per Si atom -5594.659460 kJ/mol
# Density = 2.488173 g / cm^3
# Si number density = 24.938494 Si / 1000 Ang^3
#
#
#
# Elastic Constant Matrix: (Units=GPa)
#
#
# Indices 1 2 3 4 5 6 
#
# 1 119.1756 57.4690 45.9189 14.7833 -13.9456 -30.5658
# 2 57.4690 200.6959 61.0101 -5.4866 -13.0744 -26.3448
# 3 45.9189 61.0101 109.1262 -8.8754 2.8303 -17.6137
# 4 14.7833 -5.4866 -8.8754 46.3995 -11.4902 -11.7614
# 5 -13.9456 -13.0744 2.8303 -11.4902 40.5949 4.8577
# 6 -30.5658 -26.3448 -17.6137 -11.7614 4.8577 43.5181
#
#
#
# Elastic Compliance Matrix: (Units=1/GPa)
#
#
# Indices 1 2 3 4 5 6 
#
# 1 0.012723 -0.001689 -0.003878 -0.003020 0.002616 0.005236
# 2 -0.001689 0.006719 -0.002607 0.001874 0.002044 0.002104
# 3 -0.003878 -0.002607 0.012925 0.003343 -0.002378 0.002098
# 4 -0.003020 0.001874 0.003343 0.026617 0.006043 0.006885
# 5 0.002616 0.002044 -0.002378 0.006043 0.027992 0.000621
# 6 0.005236 0.002104 0.002098 0.006885 0.000621 0.030571
#
#
# Mechanical properties :
#
#
# Convention : Reuss Voigt Hill
#
# Bulk Modulus (GPa) = 62.42129 84.19929 73.31029
# Shear Modulus (GPa) = 35.91016 43.74249 39.82632
#
# Velocity S-wave (km/s) = 3.79878 4.19264 4.00056
# Velocity P-wave (km/s) = 6.65773 7.56794 7.12738
#
# Compressibility (1/GPa) = 0.01602018
#
# Stress axis : x y z
#
# Youngs Moduli (GPa) = 78.59536 148.82073 77.36928
#
# Poissons Ratio (x) = 0.25142 0.30001
# Poissons Ratio (y) = 0.13278 0.20169
# Poissons Ratio (z) = 0.30477 0.38795
#
# Static dielectric constant tensor:
#      x y z
#    x 1.948280 0.049420 0.014300 
#    y 0.049420 2.021160 -0.018860 
#    z 0.014300 -0.018860 1.992470 
# 
# From -- ./inp_files/441977.got.cif
#   From: 2010.05.17/outbox.cif.g08.bks.cpg/sg2_221_cif.got.tgz:441977.got - 2010.06.03 11:33:40.
