data_PCOD9001341
_publ_section_title
;
Structure prediction by ZEFSAII (Michael W. Deem and Ramdas Pophale) SiO2 
 PCOD9001341
Probable space group: P -1
;
_chemical_formula_sum "Si O2"
_cell_formula_units_Z 16
_cell_length_a 5.092029
_cell_length_b 14.790137
_cell_length_c 18.746838
_cell_angle_alpha 138.840494
_cell_angle_beta 73.033822
_cell_angle_gamma 109.901871
_cell_volume 872.288714
_symmetry_space_group_name_H-M "P -1"
_symmetry_group_IT_number 2
_symmetry_cell_setting 'triclinic'
loop_
_space_group_symop_operation_xyz
x,y,z
-x,-y,-z
loop_
_atom_site_type_symbol
_atom_site_label
_atom_site_fract_x
_atom_site_fract_y
_atom_site_fract_z
Si Si1 0.458691 0.488151 0.141756
Si Si2 0.491402 0.792031 0.114821
Si Si3 0.062777 0.594173 0.122397
Si Si4 0.578465 0.783230 0.759903
Si Si5 0.809891 0.590969 0.737970
Si Si6 0.146980 0.877523 0.944942
Si Si7 0.895737 0.055413 0.849743
Si Si8 0.220390 0.552767 0.575689
O O1 0.215854 0.524359 0.131421
O O2 0.381530 0.485179 0.229391
O O3 0.748790 0.598494 0.173720
O O4 0.499917 0.335816 0.017858
O O5 0.288661 0.726262 0.155936
O O6 0.349176 0.907038 0.156303
O O7 0.803999 0.865664 0.154881
O O8 0.000000 0.500000 0.000000
O O9 0.656405 0.655195 0.723004
O O10 0.441018 0.876360 0.882271
O O11 0.347587 0.716264 0.680264
O O12 0.838207 0.888089 0.766935
O O13 0.972093 0.729139 0.846266
O O14 0.036260 0.510156 0.636774
O O15 0.137729 0.879627 0.031402
O O16 0.000000 0.000000 0.000000
O O17 0.500000 0.500000 0.500000
O O18 0.000000 0.500000 0.500000
#
# Coordination Sequence:
#
# PCOD9001341 Si02
#       8
#     2   2   2   2   2   2   2   2
#     4  11  21  34  53  77 109 152 199 234 265 320
#     4  11  21  34  51  73 111 159 194 224 273 306
#     4  10  21  35  50  71 108 154 203 236 265 307
#     4  11  24  36  56  84 117 149 194 230 279 338
#     4  11  23  35  59  84 114 152 194 230 282 337
#     4  11  21  33  47  79 122 160 188 222 261 317
#     4  12  22  33  52  78 116 154 190 220 261 334
#     4  11  24  43  62  78 112 149 186 242 298 339
#
# _framework density 18.342551
#
# number of rings (size 3 to 8) (size 9 to 14) (size 15 to 20)
#    0.000    1.000    3.750    5.625    5.250    0.000 
#    0.000    0.000    0.000    0.000    0.000    0.000 
#    0.000   20.000    0.000    0.000    0.000    0.000 
#
# Total GULP energy -89201.789614 kJ/mol
# GULP energy per Si atom -5575.111851 kJ/mol
# Density = 1.830080 g / cm^3
# Si number density = 18.342551 Si / 1000 Ang^3
#
#
#
# Elastic Constant Matrix: (Units=GPa)
#
#
# Indices 1 2 3 4 5 6 
#
# 1 82.9039 5.0937 20.2713 -1.6878 3.1466 3.9690
# 2 5.0937 59.8497 24.3698 -11.3540 2.8537 8.5727
# 3 20.2713 24.3698 62.1096 -14.5410 0.4176 7.3191
# 4 -1.6878 -11.3540 -14.5410 13.7896 5.9272 -3.5245
# 5 3.1466 2.8537 0.4176 5.9272 33.7949 2.8830
# 6 3.9690 8.5727 7.3191 -3.5245 2.8830 43.3285
#
#
#
# Elastic Compliance Matrix: (Units=1/GPa)
#
#
# Indices 1 2 3 4 5 6 
#
# 1 0.013300 0.000473 -0.005253 -0.003456 -0.000550 -0.000669
# 2 0.000473 0.021915 -0.005254 0.013773 -0.004066 -0.002101
# 3 -0.005253 -0.005254 0.025379 0.023072 -0.003371 -0.000665
# 4 -0.003456 0.013773 0.023072 0.118601 -0.022339 0.004828
# 5 -0.000550 -0.004066 -0.003371 -0.022339 0.034172 -0.002667
# 6 -0.000669 -0.002101 -0.000665 0.004828 -0.002667 0.024239
#
#
# Mechanical properties :
#
#
# Convention : Reuss Voigt Hill
#
# Bulk Modulus (GPa) = 24.67486 33.81475 29.24480
# Shear Modulus (GPa) = 18.43773 28.52450 23.48112
#
# Velocity S-wave (km/s) = 3.17391 3.94775 3.58179
# Velocity P-wave (km/s) = 5.18778 6.26537 5.75187
#
# Compressibility (1/GPa) = 0.04052708
#
# Stress axis : x y z
#
# Youngs Moduli (GPa) = 75.18728 45.63048 39.40232
#
# Poissons Ratio (x) = -0.02161 0.20699
# Poissons Ratio (y) = -0.03560 0.20702
# Poissons Ratio (z) = 0.39498 0.23974
#
# Static dielectric constant tensor:
#      x y z
#    x 1.743060 0.009100 -0.000420 
#    y 0.009100 1.692190 -0.005560 
#    z -0.000420 -0.005560 1.645420 
# 
# From -- ./inp_files/549960.got.cif
#   From: 2010.05.17/outbox.cif.g08.bks.cpg/sg2_275_cif.got.tgz:549960.got - 2010.06.03 11:33:40.
