data_PCOD9001451
_publ_section_title
;
Structure prediction by ZEFSAII (Michael W. Deem and Ramdas Pophale) SiO2 
 PCOD9001451
Probable space group: P -1
;
_chemical_formula_sum "Si O2"
_cell_formula_units_Z 16
_cell_length_a 19.015652
_cell_length_b 7.233197
_cell_length_c 13.500584
_cell_angle_alpha 136.510998
_cell_angle_beta 149.697850
_cell_angle_gamma 46.206569
_cell_volume 633.171589
_symmetry_space_group_name_H-M "P -1"
_symmetry_group_IT_number 2
_symmetry_cell_setting 'triclinic'
loop_
_space_group_symop_operation_xyz
x,y,z
-x,-y,-z
loop_
_atom_site_type_symbol
_atom_site_label
_atom_site_fract_x
_atom_site_fract_y
_atom_site_fract_z
Si Si1 0.147050 0.073027 0.169125
Si Si2 0.422926 0.893945 0.071658
Si Si3 0.721909 0.505524 0.937857
Si Si4 0.467680 0.695758 0.838257
Si Si5 0.282986 0.997939 0.571265
Si Si6 0.009287 0.084828 0.807617
Si Si7 0.039339 0.600335 0.339215
Si Si8 0.820658 0.374659 0.275293
O O1 0.263094 0.796450 0.208014
O O2 0.156586 0.334201 0.347678
O O3 0.114722 0.161591 0.048939
O O4 0.000000 0.000000 0.000000
O O5 0.429680 0.685165 0.902931
O O6 0.314735 0.769002 0.957328
O O7 0.582980 0.938961 0.303168
O O8 0.344500 0.209076 0.084359
O O9 0.605785 0.514632 0.887557
O O10 0.886101 0.538847 0.162324
O O11 0.341683 0.758612 0.629614
O O12 0.500000 0.000000 0.000000
O O13 0.144465 0.901979 0.324654
O O14 0.224262 0.299142 0.663470
O O15 0.069704 0.772242 0.728994
O O16 0.992047 0.239296 0.741125
O O17 0.108558 0.708440 0.562501
#
# Coordination Sequence:
#
# PCOD9001451 Si02
#       8
#     2   2   2   2   2   2   2   2
#     4  10  23  41  64  90 125 169 205 261 307 379
#     4  10  21  37  59  90 132 164 195 265 310 372
#     4   9  18  37  59  88 119 165 209 242 313 364
#     4   8  18  31  58  79 126 160 197 241 309 365
#     4  10  21  35  55  92 125 159 201 251 318 358
#     4  12  24  37  66  94 125 160 215 261 310 364
#     4  11  23  40  61  91 135 160 208 257 318 359
#     4  12  24  36  64  98 127 159 209 266 306 365
#
# _framework density 25.269613
#
# number of rings (size 3 to 8) (size 9 to 14) (size 15 to 20)
#    0.000    2.000    1.250    3.750   10.500    0.000 
#    0.000    0.000    0.000   33.750    6.500    0.000 
#    0.000    0.000    0.000    0.000    0.000    0.000 
#
# Total GULP energy -89196.514665 kJ/mol
# GULP energy per Si atom -5574.782167 kJ/mol
# Density = 2.521210 g / cm^3
# Si number density = 25.269613 Si / 1000 Ang^3
#
#
#
# Elastic Constant Matrix: (Units=GPa)
#
#
# Indices 1 2 3 4 5 6 
#
# 1 91.5088 58.4606 37.5585 -26.4184 -7.7242 5.5509
# 2 58.4606 152.9547 21.6393 -15.6567 -2.3505 -23.9142
# 3 37.5585 21.6393 81.6094 -19.6248 1.1342 -6.6288
# 4 -26.4184 -15.6567 -19.6248 28.7598 -8.4009 -0.9207
# 5 -7.7242 -2.3505 1.1342 -8.4009 38.1623 -7.2512
# 6 5.5509 -23.9142 -6.6288 -0.9207 -7.2512 58.1667
#
#
#
# Elastic Compliance Matrix: (Units=1/GPa)
#
#
# Indices 1 2 3 4 5 6 
#
# 1 0.022991 -0.007050 -0.005476 0.015412 0.006898 -0.004613
# 2 -0.007050 0.009816 0.000953 -0.000331 -0.000010 0.004811
# 3 -0.005476 0.000953 0.016427 0.006956 0.000557 0.002966
# 4 0.015412 -0.000331 0.006956 0.058271 0.016122 0.002118
# 5 0.006898 -0.000010 0.000557 0.016122 0.031821 0.003623
# 6 -0.004613 0.004811 0.002966 0.002118 0.003623 0.020433
#
#
# Mechanical properties :
#
#
# Convention : Reuss Voigt Hill
#
# Bulk Modulus (GPa) = 38.33246 62.37663 50.35455
# Shear Modulus (GPa) = 26.09602 38.91204 32.50403
#
# Velocity S-wave (km/s) = 3.21706 3.92838 3.59038
# Velocity P-wave (km/s) = 5.38531 6.73159 6.09573
#
# Compressibility (1/GPa) = 0.02608755
#
# Stress axis : x y z
#
# Youngs Moduli (GPa) = 43.49545 101.87662 60.87658
#
# Poissons Ratio (x) = 0.71825 0.33336
# Poissons Ratio (y) = 0.30665 -0.05803
# Poissons Ratio (z) = 0.23818 -0.09711
#
# Static dielectric constant tensor:
#      x y z
#    x 2.262350 0.149170 -0.198550 
#    y 0.149170 2.089300 -0.113790 
#    z -0.198550 -0.113790 2.101140 
# 
# From -- ./inp_files/540588.got.cif
#   From: 2010.05.17/outbox.cif.g08.bks.cpg/sg2_271_cif.got.tgz:540588.got - 2010.06.03 11:33:40.
