data_PCOD9001182
_publ_section_title
;
Structure prediction by ZEFSAII (Michael W. Deem and Ramdas Pophale) SiO2 
 PCOD9001182
Probable space group: P -1
;
_chemical_formula_sum "Si O2"
_cell_formula_units_Z 16
_cell_length_a 17.342341
_cell_length_b 11.152132
_cell_length_c 9.279560
_cell_angle_alpha 123.561977
_cell_angle_beta 112.512256
_cell_angle_gamma 34.960133
_cell_volume 847.622957
_symmetry_space_group_name_H-M "P -1"
_symmetry_group_IT_number 2
_symmetry_cell_setting 'triclinic'
loop_
_space_group_symop_operation_xyz
x,y,z
-x,-y,-z
loop_
_atom_site_type_symbol
_atom_site_label
_atom_site_fract_x
_atom_site_fract_y
_atom_site_fract_z
Si Si1 0.636364 0.238219 0.372325
Si Si2 0.320823 0.704529 0.860526
Si Si3 0.951734 0.902836 0.894524
Si Si4 0.211630 0.030127 0.416672
Si Si5 0.455759 0.961136 0.807007
Si Si6 0.623442 0.820635 0.582565
Si Si7 0.556620 0.226463 0.819519
Si Si8 0.794624 0.629980 0.311229
O O1 0.500000 0.500000 0.500000
O O2 0.689512 0.256648 0.288706
O O3 0.596396 0.125262 0.239591
O O4 0.745287 0.089383 0.479012
O O5 0.400791 0.452573 0.803865
O O6 0.420618 0.694655 0.982508
O O7 0.177025 0.927559 0.979193
O O8 0.893148 0.924824 0.715263
O O9 0.080369 0.627216 0.835285
O O10 0.000000 0.000000 0.000000
O O11 0.166207 0.256876 0.557111
O O12 0.349227 0.854738 0.301857
O O13 0.579342 0.780550 0.657397
O O14 0.332316 0.195228 0.776099
O O15 0.500000 0.000000 0.000000
O O16 0.750384 0.629908 0.438424
O O17 0.500000 0.000000 0.500000
O O18 0.616671 0.992013 0.754087
#
# Coordination Sequence:
#
# PCOD9001182 Si02
#       8
#     2   2   2   2   2   2   2   2
#     4  11  21  35  57  85 115 146 184 231 289 335
#     4  10  21  34  56  82 116 141 189 226 288 329
#     4  11  24  37  57  82 113 151 191 234 277 330
#     4   9  19  39  58  81 109 149 195 226 276 338
#     4  10  21  35  56  89 118 144 181 234 290 329
#     4   9  18  31  57  79 110 139 189 230 274 313
#     4   9  17  34  57  84 104 147 184 242 270 323
#     4   9  20  38  57  80 112 151 194 223 274 336
#
# _framework density 18.876318999999999
#
# number of rings (size 3 to 8) (size 9 to 14) (size 15 to 20)
#    0.000    2.250    1.250    1.875    3.500    1.000 
#    0.000    4.375    0.000    0.000    0.000    0.000 
#    0.000    0.000    0.000    0.000    0.000    0.000 
#
# Total GULP energy -89158.717599 kJ/mol
# GULP energy per Si atom -5572.419850 kJ/mol
# Density = 1.883336 g / cm^3
# Si number density = 18.876319 Si / 1000 Ang^3
#
#
#
# Elastic Constant Matrix: (Units=GPa)
#
#
# Indices 1 2 3 4 5 6 
#
# 1 50.3290 34.5046 30.2493 -7.3598 1.6584 -5.0145
# 2 34.5046 91.8169 44.9470 13.2924 -2.5114 -5.2044
# 3 30.2493 44.9470 81.2964 -5.3814 6.5270 -1.6530
# 4 -7.3598 13.2924 -5.3814 37.9392 -3.8389 0.9066
# 5 1.6584 -2.5114 6.5270 -3.8389 37.6069 -3.4329
# 6 -5.0145 -5.2044 -1.6530 0.9066 -3.4329 15.6418
#
#
#
# Elastic Compliance Matrix: (Units=1/GPa)
#
#
# Indices 1 2 3 4 5 6 
#
# 1 0.032180 -0.010318 -0.005582 0.008957 0.000308 0.005842
# 2 -0.010318 0.020646 -0.008385 -0.010254 0.002593 0.003839
# 3 -0.005582 -0.008385 0.019516 0.004345 -0.003582 -0.003555
# 4 0.008957 -0.010254 0.004345 0.032479 0.001329 -0.001672
# 5 0.000308 0.002593 -0.003582 0.001329 0.028117 0.006677
# 6 0.005842 0.003839 -0.003555 -0.001672 0.006677 0.068268
#
#
# Mechanical properties :
#
#
# Convention : Reuss Voigt Hill
#
# Bulk Modulus (GPa) = 42.06417 49.20491 45.63454
# Shear Modulus (GPa) = 19.40246 25.82033 22.61140
#
# Velocity S-wave (km/s) = 3.20952 3.70248 3.46478
# Velocity P-wave (km/s) = 6.00560 6.66344 6.34305
#
# Compressibility (1/GPa) = 0.02377320
#
# Stress axis : x y z
#
# Youngs Moduli (GPa) = 31.07548 48.43563 51.23907
#
# Poissons Ratio (x) = 0.49974 0.28604
# Poissons Ratio (y) = 0.32062 0.42962
# Poissons Ratio (z) = 0.17347 0.40611
#
# Static dielectric constant tensor:
#      x y z
#    x 1.719060 0.001840 -0.002290 
#    y 0.001840 1.693430 0.034290 
#    z -0.002290 0.034290 1.644960 
# 
# From -- ./inp_files/256343.got.cif
#   From: 2010.05.17/outbox.cif.g08.bks.cpg/sg2_129_cif.got.tgz:256343.got - 2010.06.03 11:33:40.
