data_PCOD9001072
_publ_section_title
;
Structure prediction by ZEFSAII (Michael W. Deem and Ramdas Pophale) SiO2 
 PCOD9001072
Probable space group: P -1
;
_chemical_formula_sum "Si O2"
_cell_formula_units_Z 16
_cell_length_a 16.089692
_cell_length_b 12.783318
_cell_length_c 18.901085
_cell_angle_alpha 25.214480
_cell_angle_beta 158.117565
_cell_angle_gamma 143.287657
_cell_volume 599.415485
_symmetry_space_group_name_H-M "P -1"
_symmetry_group_IT_number 2
_symmetry_cell_setting 'triclinic'
loop_
_space_group_symop_operation_xyz
x,y,z
-x,-y,-z
loop_
_atom_site_type_symbol
_atom_site_label
_atom_site_fract_x
_atom_site_fract_y
_atom_site_fract_z
Si Si1 0.448453 0.209218 0.005811
Si Si2 0.309230 0.418561 0.970287
Si Si3 0.854204 0.876063 0.861071
Si Si4 0.049779 0.128500 0.655952
Si Si5 0.262795 0.521847 0.342853
Si Si6 0.465602 0.870019 0.442846
Si Si7 0.229240 0.038432 0.696829
Si Si8 0.749094 0.764819 0.612571
O O1 0.200317 0.174761 0.812211
O O2 0.483337 0.458988 0.918390
O O3 0.574059 0.187371 0.041711
O O4 0.599283 0.975697 0.311909
O O5 0.132062 0.613435 0.664748
O O6 0.181422 0.361614 0.975134
O O7 0.396405 0.137545 0.182645
O O8 0.758002 0.114839 0.692698
O O9 0.665876 0.899642 0.636700
O O10 0.113927 0.785825 0.094833
O O11 0.192765 0.045888 0.747012
O O12 0.914222 0.912614 0.691066
O O13 0.500000 0.500000 0.500000
O O14 0.282012 0.301627 0.550891
O O15 0.118629 0.441707 0.211891
O O16 0.583209 0.678513 0.592168
O O17 0.000000 0.000000 0.500000
#
# Coordination Sequence:
#
# PCOD9001072 Si02
#       8
#     2   2   2   2   2   2   2   2
#     4  10  21  33  59  95 124 162 215 262 318 387
#     4   9  18  39  62  85 122 160 219 260 304 379
#     4   9  19  41  66  84 124 177 218 250 325 394
#     4  11  20  35  64  92 125 172 205 263 325 382
#     4  11  22  39  65  96 131 163 211 275 317 378
#     4   9  20  40  66  86 121 183 211 258 324 388
#     4  11  17  39  61  89 132 173 204 260 326 386
#     4  10  23  41  61  93 135 160 210 269 327 372
#
# _framework density 26.692671000000001
#
# number of rings (size 3 to 8) (size 9 to 14) (size 15 to 20)
#    0.750    1.250    5.000    0.375    0.000    4.500 
#    2.250    4.375    0.000    0.000    0.000    0.000 
#    0.000    0.000    0.000    0.000    0.000    0.000 
#
# Total GULP energy -89418.057451 kJ/mol
# GULP energy per Si atom -5588.628591 kJ/mol
# Density = 2.663192 g / cm^3
# Si number density = 26.692671 Si / 1000 Ang^3
#
#
#
# Elastic Constant Matrix: (Units=GPa)
#
#
# Indices 1 2 3 4 5 6 
#
# 1 147.7114 4.1228 15.1252 -12.7621 30.8634 -2.4551
# 2 4.1228 91.9349 31.3605 19.4628 -7.9252 4.4758
# 3 15.1252 31.3605 88.7021 8.0769 -5.1445 1.7705
# 4 -12.7621 19.4628 8.0769 39.0628 -2.2463 1.3476
# 5 30.8634 -7.9252 -5.1445 -2.2463 39.4976 -4.4656
# 6 -2.4551 4.4758 1.7705 1.3476 -4.4656 41.1977
#
#
#
# Elastic Compliance Matrix: (Units=1/GPa)
#
#
# Indices 1 2 3 4 5 6 
#
# 1 0.008768 -0.001093 -0.001827 0.003382 -0.007135 -0.000164
# 2 -0.001093 0.013884 -0.003979 -0.006268 0.002662 -0.000909
# 3 -0.001827 -0.003979 0.013235 -0.001221 0.002289 0.000043
# 4 0.003382 -0.006268 -0.001221 0.029953 -0.002390 -0.000304
# 5 -0.007135 0.002662 0.002289 -0.002390 0.031897 0.002723
# 6 -0.000164 -0.000909 0.000043 -0.000304 0.002723 0.024665
#
#
# Mechanical properties :
#
#
# Convention : Reuss Voigt Hill
#
# Bulk Modulus (GPa) = 45.27207 47.72948 46.50077
# Shear Modulus (GPa) = 34.82764 42.46763 38.64763
#
# Velocity S-wave (km/s) = 3.61607 3.99304 3.80922
# Velocity P-wave (km/s) = 5.86787 6.25932 6.06676
#
# Compressibility (1/GPa) = 0.02208868
#
# Stress axis : x y z
#
# Youngs Moduli (GPa) = 114.05377 72.02403 75.55667
#
# Poissons Ratio (x) = 0.07872 0.13805
# Poissons Ratio (y) = 0.12466 0.30065
# Poissons Ratio (z) = 0.20839 0.28659
#
# Static dielectric constant tensor:
#      x y z
#    x 2.155190 -0.042560 0.069640 
#    y -0.042560 2.157680 0.051910 
#    z 0.069640 0.051910 2.123780 
# 
# From -- ./inp_files/600277.got.cif
#   From: 2010.05.17/outbox.cif.g08.bks.cpg/sg2_301_cif.got.tgz:600277.got - 2010.06.03 11:33:40.
