data_PCOD9001409
_publ_section_title
;
Structure prediction by ZEFSAII (Michael W. Deem and Ramdas Pophale) SiO2 
 PCOD9001409
Probable space group: P -1
;
_chemical_formula_sum "Si O2"
_cell_formula_units_Z 16
_cell_length_a 23.479207
_cell_length_b 8.989272
_cell_length_c 21.897968
_cell_angle_alpha 43.872363
_cell_angle_beta 20.947017
_cell_angle_gamma 33.235095
_cell_volume 861.696575
_symmetry_space_group_name_H-M "P -1"
_symmetry_group_IT_number 2
_symmetry_cell_setting 'triclinic'
loop_
_space_group_symop_operation_xyz
x,y,z
-x,-y,-z
loop_
_atom_site_type_symbol
_atom_site_label
_atom_site_fract_x
_atom_site_fract_y
_atom_site_fract_z
Si Si1 0.326369 0.615190 0.255120
Si Si2 0.594942 0.938564 0.670142
Si Si3 0.097639 0.248590 0.698019
Si Si4 0.523185 0.175186 0.472604
Si Si5 0.971828 0.198589 0.381919
Si Si6 0.316805 0.656760 0.932880
Si Si7 0.376583 0.691397 0.383766
Si Si8 0.245175 0.230288 0.841058
O O1 0.368555 0.342183 0.266490
O O2 0.176121 0.711311 0.436771
O O3 0.545704 0.507144 0.095303
O O4 0.196308 0.888173 0.261206
O O5 0.752253 0.850697 0.481949
O O6 0.639842 0.062351 0.642460
O O7 0.358958 0.175707 0.808048
O O8 0.016465 0.555882 0.708394
O O9 0.243808 0.028597 0.671052
O O10 0.905657 0.264542 0.869008
O O11 0.461255 0.448886 0.420847
O O12 0.366893 0.259296 0.659704
O O13 0.500000 0.000000 0.500000
O O14 0.843373 0.204933 0.453421
O O15 0.457278 0.456800 0.794243
O O16 0.288690 0.938929 0.872356
O O17 0.000000 0.500000 0.000000
#
# Coordination Sequence:
#
# PCOD9001409 Si02
#       8
#     2   2   2   2   2   2   2   2
#     4   8  17  37  58  75 107 141 181 223 261 319
#     4   9  21  37  53  81 109 139 179 221 267 319
#     4  10  21  35  55  81 109 141 181 215 265 323
#     4  11  20  37  54  77 114 144 176 219 260 319
#     4   9  17  35  59  78 102 147 180 215 271 318
#     4  10  21  36  54  82 108 139 183 223 261 316
#     4  11  21  35  56  81 110 143 178 218 268 316
#     4  10  22  37  54  77 108 148 182 213 264 319
#
# _framework density 18.568021000000002
#
# number of rings (size 3 to 8) (size 9 to 14) (size 15 to 20)
#    0.000    2.250    2.500    1.500    3.500    3.500 
#    0.000    0.000    0.000    1.500    0.000    0.000 
#    0.000    0.000    0.000    0.000    0.000    0.000 
#
# Total GULP energy -89296.156658 kJ/mol
# GULP energy per Si atom -5581.009791 kJ/mol
# Density = 1.852576 g / cm^3
# Si number density = 18.568021 Si / 1000 Ang^3
#
#
#
# Elastic Constant Matrix: (Units=GPa)
#
#
# Indices 1 2 3 4 5 6 
#
# 1 77.0263 62.4446 23.7260 2.6129 -29.2450 7.0107
# 2 62.4446 107.5270 33.1046 16.0302 -26.3889 -9.2523
# 3 23.7260 33.1046 78.0711 5.6170 -35.1106 -11.2965
# 4 2.6129 16.0302 5.6170 22.9574 0.1684 -8.6919
# 5 -29.2450 -26.3889 -35.1106 0.1684 27.5047 2.0555
# 6 7.0107 -9.2523 -11.2965 -8.6919 2.0555 35.0979
#
#
#
# Elastic Compliance Matrix: (Units=1/GPa)
#
#
# Indices 1 2 3 4 5 6 
#
# 1 0.042028 -0.018511 0.013873 0.000077 0.045492 -0.011455
# 2 -0.018511 0.022449 -0.003796 -0.010331 -0.003378 0.006033
# 3 0.013873 -0.003796 0.037794 -0.007441 0.059168 0.003084
# 4 0.000077 -0.010331 -0.007441 0.056545 -0.020427 0.010066
# 5 0.045492 -0.003378 0.059168 -0.020427 0.157533 -0.005218
# 6 -0.011455 0.006033 0.003084 0.010066 -0.005218 0.036161
#
#
# Mechanical properties :
#
#
# Convention : Reuss Voigt Hill
#
# Bulk Modulus (GPa) = 11.70930 55.68608 33.69769
# Shear Modulus (GPa) = 12.56763 26.66861 19.61812
#
# Velocity S-wave (km/s) = 2.60444 3.79392 3.25399
# Velocity P-wave (km/s) = 3.91970 7.01763 5.68380
#
# Compressibility (1/GPa) = 0.08540218
#
# Stress axis : x y z
#
# Youngs Moduli (GPa) = 23.79340 44.54536 26.45929
#
# Poissons Ratio (x) = 0.82458 -0.36706
# Poissons Ratio (y) = 0.44044 0.10045
# Poissons Ratio (z) = -0.33008 0.16911
#
# Static dielectric constant tensor:
#      x y z
#    x 1.638490 -0.004420 0.001400 
#    y -0.004420 1.630390 0.010130 
#    z 0.001400 0.010130 1.633400 
# 
# From -- ./inp_files/176141.got.cif
#   From: 2010.05.17/outbox.cif.g08.bks.cpg/sg2_89_cif.got.tgz:176141.got - 2010.06.03 11:33:40.
