data_PCOD9001672
_publ_section_title
;
Structure prediction by ZEFSAII (Michael W. Deem and Ramdas Pophale) SiO2 
 PCOD9001672
Probable space group: P -1
;
_chemical_formula_sum "Si O2"
_cell_formula_units_Z 14
_cell_length_a 8.346991
_cell_length_b 14.920574
_cell_length_c 7.178166
_cell_angle_alpha 95.726832
_cell_angle_beta 84.997902
_cell_angle_gamma 145.767135
_cell_volume 500.389014
_symmetry_space_group_name_H-M "P -1"
_symmetry_group_IT_number 2
_symmetry_cell_setting 'triclinic'
loop_
_space_group_symop_operation_xyz
x,y,z
-x,-y,-z
loop_
_atom_site_type_symbol
_atom_site_label
_atom_site_fract_x
_atom_site_fract_y
_atom_site_fract_z
Si Si1 0.832607 0.496654 0.625109
Si Si2 0.173655 0.318637 0.489166
Si Si3 0.699729 0.702428 0.888877
Si Si4 0.463378 0.069174 0.822845
Si Si5 0.095252 0.394385 0.972635
Si Si6 0.241315 0.148190 0.723361
Si Si7 0.232148 0.956038 0.240046
O O1 0.948617 0.643502 0.560422
O O2 0.909565 0.537686 0.843055
O O3 0.492036 0.317682 0.621929
O O4 0.000000 0.500000 0.500000
O O5 0.500000 0.500000 0.500000
O O6 0.146119 0.232040 0.310974
O O7 0.026430 0.218690 0.671354
O O8 0.793364 0.649068 0.957707
O O9 0.360726 0.545125 0.849696
O O10 0.741111 0.799618 0.057156
O O11 0.287848 0.984347 0.017317
O O12 0.783186 0.244197 0.889677
O O13 0.349252 0.096313 0.713529
O O14 0.501860 0.985670 0.719422
O O15 0.903627 0.009414 0.685354
#
# Coordination Sequence:
#
# PCOD9001672 Si02
#       7
#     2   2   2   2   2   2   2
#     4  10  21  35  60  94 118 148 200 253 297 350
#     4  11  20  36  61  86 118 155 192 248 306 342
#     4   9  19  35  63  87 114 155 200 243 300 350
#     4  11  23  38  64  86 119 163 204 235 292 365
#     4   9  18  37  59  87 120 157 195 246 296 350
#     4  11  21  40  63  88 119 156 200 247 292 353
#     4  11  23  41  61  88 121 160 201 243 293 353
#
# _framework density 27.978235000000002
#
# number of rings (size 3 to 8) (size 9 to 14) (size 15 to 20)
#    0.000    1.714    2.857    3.000    0.000    3.429 
#    0.000    3.571    3.143    0.000    0.000    0.000 
#    0.000    0.000    0.000    0.000    0.000    0.000 
#
# Total GULP energy -78246.753573 kJ/mol
# GULP energy per Si atom -5589.053827 kJ/mol
# Density = 2.791456 g / cm^3
# Si number density = 27.978235 Si / 1000 Ang^3
#
#
#
# Elastic Constant Matrix: (Units=GPa)
#
#
# Indices 1 2 3 4 5 6 
#
# 1 190.5832 41.9242 39.2009 -7.3455 -38.3720 -3.7670
# 2 41.9242 112.5164 20.6010 -20.2886 -2.8075 20.2319
# 3 39.2009 20.6010 145.5795 -16.0217 -18.2736 8.2632
# 4 -7.3455 -20.2886 -16.0217 43.8379 -1.5896 -4.5284
# 5 -38.3720 -2.8075 -18.2736 -1.5896 54.2261 -9.8136
# 6 -3.7670 20.2319 8.2632 -4.5284 -9.8136 39.9705
#
#
#
# Elastic Compliance Matrix: (Units=1/GPa)
#
#
# Indices 1 2 3 4 5 6 
#
# 1 0.007287 -0.003064 -0.001076 -0.000009 0.005316 0.003764
# 2 -0.003064 0.011932 -0.000388 0.004101 -0.002729 -0.006454
# 3 -0.001076 -0.000388 0.007750 0.002454 0.001758 -0.000797
# 4 -0.000009 0.004101 0.002454 0.025759 0.001935 0.000809
# 5 0.005316 -0.002729 0.001758 0.001935 0.024096 0.007654
# 6 0.003764 -0.006454 -0.000797 0.000809 0.007654 0.030776
#
#
# Mechanical properties :
#
#
# Convention : Reuss Voigt Hill
#
# Bulk Modulus (GPa) = 55.82709 72.45903 64.14306
# Shear Modulus (GPa) = 40.77441 50.73711 45.75576
#
# Velocity S-wave (km/s) = 3.82168 4.26308 4.04840
# Velocity P-wave (km/s) = 6.28258 7.08424 6.69541
#
# Compressibility (1/GPa) = 0.01791245
#
# Stress axis : x y z
#
# Youngs Moduli (GPa) = 137.23544 83.80675 129.03727
#
# Poissons Ratio (x) = 0.25677 0.13883
# Poissons Ratio (y) = 0.42047 0.05011
# Poissons Ratio (z) = 0.14765 0.03255
#
# Static dielectric constant tensor:
#      x y z
#    x 2.311790 -0.005390 0.056540 
#    y -0.005390 2.235230 0.050390 
#    z 0.056540 0.050390 2.106990 
# 
# From -- ./inp_files/202012.got.cif
#   From: 2010.05.17/outbox.cif.g08.bks.cpg/sg2_102_cif.got.tgz:202012.got - 2010.06.03 11:33:40.
