data_PCOD9001579
_publ_section_title
;
Structure prediction by ZEFSAII (Michael W. Deem and Ramdas Pophale) SiO2 
 PCOD9001579
Probable space group: P -1
;
_chemical_formula_sum "Si O2"
_cell_formula_units_Z 16
_cell_length_a 15.259118
_cell_length_b 5.136521
_cell_length_c 8.931633
_cell_angle_alpha 100.883361
_cell_angle_beta 65.680718
_cell_angle_gamma 109.286278
_cell_volume 600.995509
_symmetry_space_group_name_H-M "P -1"
_symmetry_group_IT_number 2
_symmetry_cell_setting 'triclinic'
loop_
_space_group_symop_operation_xyz
x,y,z
-x,-y,-z
loop_
_atom_site_type_symbol
_atom_site_label
_atom_site_fract_x
_atom_site_fract_y
_atom_site_fract_z
Si Si1 0.297317 0.799195 0.227210
Si Si2 0.011541 0.924390 0.809056
Si Si3 0.507870 0.275205 0.848901
Si Si4 0.805696 0.126615 0.188411
Si Si5 0.398744 0.252443 0.410160
Si Si6 0.619699 0.318607 0.297236
Si Si7 0.304707 0.322973 0.991198
Si Si8 0.893046 0.317816 0.850686
O O1 0.419607 0.884290 0.145005
O O2 0.210535 0.831514 0.180289
O O3 0.305939 0.011419 0.383502
O O4 0.281992 0.465009 0.175839
O O5 0.942737 0.620475 0.785832
O O6 0.125903 0.911333 0.727609
O O7 0.973722 0.145479 0.766940
O O8 0.000000 0.000000 0.000000
O O9 0.561714 0.473205 0.694688
O O10 0.388268 0.154846 0.902276
O O11 0.500000 0.500000 0.000000
O O12 0.702841 0.199252 0.302585
O O13 0.784897 0.863462 0.062779
O O14 0.867719 0.352233 0.048406
O O15 0.500571 0.157256 0.362522
O O16 0.372544 0.391941 0.592805
O O17 0.651008 0.412537 0.116917
#
# Coordination Sequence:
#
# PCOD9001579 Si02
#       8
#     2   2   2   2   2   2   2   2
#     4  11  21  35  61  85 126 159 206 259 321 370
#     4  10  22  37  60  93 132 160 207 275 330 376
#     4   9  21  34  56  87 123 159 205 253 312 370
#     4  11  21  36  63  86 127 161 208 258 326 375
#     4  10  23  39  58  88 129 168 207 256 308 382
#     4  10  22  40  59  87 126 168 212 250 311 387
#     4  10  21  35  58  93 119 159 212 259 315 374
#     4  11  23  36  61  96 129 163 209 274 325 380
#
# _framework density 26.622492999999999
#
# number of rings (size 3 to 8) (size 9 to 14) (size 15 to 20)
#    0.000    1.750    1.250    3.750    7.000    5.500 
#    0.000    3.750    0.000    1.500    0.000    0.000 
#    0.000    0.000    0.000    0.000    0.000    0.000 
#
# Total GULP energy -89215.331935 kJ/mol
# GULP energy per Si atom -5575.958246 kJ/mol
# Density = 2.656190 g / cm^3
# Si number density = 26.622493 Si / 1000 Ang^3
#
#
#
# Elastic Constant Matrix: (Units=GPa)
#
#
# Indices 1 2 3 4 5 6 
#
# 1 269.6645 41.9590 42.5885 24.7072 -17.5179 -10.6476
# 2 41.9590 104.3065 19.1689 16.4387 0.3857 -4.4063
# 3 42.5885 19.1689 52.3856 4.8618 5.5279 8.6954
# 4 24.7072 16.4387 4.8618 22.1728 -2.0587 9.4469
# 5 -17.5179 0.3857 5.5279 -2.0587 36.3624 12.4655
# 6 -10.6476 -4.4063 8.6954 9.4469 12.4655 49.9871
#
#
#
# Elastic Compliance Matrix: (Units=1/GPa)
#
#
# Indices 1 2 3 4 5 6 
#
# 1 0.005127 -0.000378 -0.004128 -0.005309 0.002020 0.002276
# 2 -0.000378 0.012084 -0.003698 -0.009503 -0.001596 0.003822
# 3 -0.004128 -0.003698 0.024710 0.003848 -0.003665 -0.005317
# 4 -0.005309 -0.009503 0.003848 0.064808 0.006266 -0.016448
# 5 0.002020 -0.001596 -0.003665 0.006266 0.032248 -0.008299
# 6 0.002276 0.003822 -0.005317 -0.016448 -0.008299 0.026930
#
#
# Mechanical properties :
#
#
# Convention : Reuss Voigt Hill
#
# Bulk Modulus (GPa) = 39.19628 70.42106 54.80867
# Shear Modulus (GPa) = 26.20278 43.21380 34.70829
#
# Velocity S-wave (km/s) = 3.14065 4.03327 3.61462
# Velocity P-wave (km/s) = 5.28267 6.94254 6.16869
#
# Compressibility (1/GPa) = 0.02551263
#
# Stress axis : x y z
#
# Youngs Moduli (GPa) = 195.05925 82.75410 40.46873
#
# Poissons Ratio (x) = 0.03130 0.16704
# Poissons Ratio (y) = 0.07379 0.14966
# Poissons Ratio (z) = 0.80515 0.30604
#
# Static dielectric constant tensor:
#      x y z
#    x 2.295640 0.036550 0.018900 
#    y 0.036550 2.220810 0.030630 
#    z 0.018900 0.030630 2.177710 
# 
# From -- ./inp_files/441419.got.cif
#   From: 2010.05.17/outbox.cif.g08.bks.cpg/sg2_221_cif.got.tgz:441419.got - 2010.06.03 11:33:40.
