data_PCOD9001619
_publ_section_title
;
Structure prediction by ZEFSAII (Michael W. Deem and Ramdas Pophale) SiO2 
 PCOD9001619
Probable space group: P -1
;
_chemical_formula_sum "Si O2"
_cell_formula_units_Z 12
_cell_length_a 14.749954
_cell_length_b 6.735047
_cell_length_c 7.096943
_cell_angle_alpha 116.741531
_cell_angle_beta 129.016964
_cell_angle_gamma 71.390644
_cell_volume 488.533747
_symmetry_space_group_name_H-M "P -1"
_symmetry_group_IT_number 2
_symmetry_cell_setting 'triclinic'
loop_
_space_group_symop_operation_xyz
x,y,z
-x,-y,-z
loop_
_atom_site_type_symbol
_atom_site_label
_atom_site_fract_x
_atom_site_fract_y
_atom_site_fract_z
Si Si1 0.100819 0.325839 0.981905
Si Si2 0.417395 0.811010 0.876686
Si Si3 0.061198 0.828605 0.835237
Si Si4 0.252434 0.680203 0.325527
Si Si5 0.395346 0.565589 0.100530
Si Si6 0.842221 0.612805 0.359012
O O1 0.125171 0.329671 0.790373
O O2 0.074714 0.076003 0.889777
O O3 0.215909 0.442815 0.258347
O O4 0.000000 0.500000 0.000000
O O5 0.296740 0.831314 0.613776
O O6 0.483180 0.575831 0.803770
O O7 0.398898 0.779290 0.060598
O O8 0.500000 0.000000 0.000000
O O9 0.112458 0.646411 0.674075
O O10 0.927029 0.759915 0.654347
O O11 0.143585 0.783584 0.105855
O O12 0.351936 0.637652 0.280067
O O13 0.296786 0.402988 0.820090
#
# Coordination Sequence:
#
# PCOD9001619 Si02
#       6
#     2   2   2   2   2   2
#     4  10  21  35  59  92 127 164 200 245 302 367
#     4  11  24  41  64  89 115 160 211 257 309 360
#     4   9  19  37  60  89 123 159 200 246 298 365
#     4  10  24  40  60  91 124 162 203 251 311 364
#     4   9  22  42  61  87 124 156 202 259 300 362
#     4   9  20  38  61  89 122 164 204 246 303 361
#
# _framework density 24.563300000000002
#
# number of rings (size 3 to 8) (size 9 to 14) (size 15 to 20)
#    0.000    2.667    0.000    1.000    0.000   18.000 
#    0.000    0.000    0.000    0.000    0.000    0.000 
#    0.000    0.000    0.000    0.000    0.000    0.000 
#
# Total GULP energy -67053.428195 kJ/mol
# GULP energy per Si atom -5587.785683 kJ/mol
# Density = 2.450739 g / cm^3
# Si number density = 24.563300 Si / 1000 Ang^3
#
#
#
# Elastic Constant Matrix: (Units=GPa)
#
#
# Indices 1 2 3 4 5 6 
#
# 1 82.4607 20.8393 -3.9721 5.5992 2.7672 18.4021
# 2 20.8393 148.1470 45.5411 33.9422 1.4888 32.6989
# 3 -3.9721 45.5411 122.8775 2.0601 12.8989 19.8897
# 4 5.5992 33.9422 2.0601 35.7377 -1.1877 7.4631
# 5 2.7672 1.4888 12.8989 -1.1877 25.8202 7.4457
# 6 18.4021 32.6989 19.8897 7.4631 7.4457 38.5745
#
#
#
# Elastic Compliance Matrix: (Units=1/GPa)
#
#
# Indices 1 2 3 4 5 6 
#
# 1 0.014011 -0.001144 0.002009 0.000154 -0.000505 -0.006682
# 2 -0.001144 0.011326 -0.003364 -0.009038 0.002479 -0.006051
# 3 0.002009 -0.003364 0.010354 0.002812 -0.004145 -0.003189
# 4 0.000154 -0.009038 0.002812 0.036662 0.001124 -0.001172
# 5 -0.000505 0.002479 -0.004145 0.001124 0.043148 -0.008269
# 6 -0.006682 -0.006051 -0.003189 -0.001172 -0.008269 0.037708
#
#
# Mechanical properties :
#
#
# Convention : Reuss Voigt Hill
#
# Bulk Modulus (GPa) = 32.58022 53.14464 42.86243
# Shear Modulus (GPa) = 29.68456 39.43160 34.55808
#
# Velocity S-wave (km/s) = 3.48011 4.01097 3.75493
# Velocity P-wave (km/s) = 5.42594 6.56759 6.02387
#
# Compressibility (1/GPa) = 0.03069347
#
# Stress axis : x y z
#
# Youngs Moduli (GPa) = 71.37493 88.28860 96.57974
#
# Poissons Ratio (x) = 0.10097 -0.19401
# Poissons Ratio (y) = 0.08162 0.32490
# Poissons Ratio (z) = -0.14338 0.29701
#
# Static dielectric constant tensor:
#      x y z
#    x 1.962590 0.014740 -0.000210 
#    y 0.014740 1.977430 -0.032660 
#    z -0.000210 -0.032660 2.011640 
# 
# From -- ./inp_files/44909.got.cif
#   From: 2010.05.17/outbox.cif.g08.bks.cpg/sg2_23_cif.got.tgz:44909.got - 2010.06.03 11:33:40.
