data_PCOD9001483
_publ_section_title
;
Structure prediction by ZEFSAII (Michael W. Deem and Ramdas Pophale) SiO2 
 PCOD9001483
Probable space group: P -1
;
_chemical_formula_sum "Si O2"
_cell_formula_units_Z 16
_cell_length_a 18.466733
_cell_length_b 10.902214
_cell_length_c 14.532374
_cell_angle_alpha 151.656985
_cell_angle_beta 152.558168
_cell_angle_gamma 41.773800
_cell_volume 631.731649
_symmetry_space_group_name_H-M "P -1"
_symmetry_group_IT_number 2
_symmetry_cell_setting 'triclinic'
loop_
_space_group_symop_operation_xyz
x,y,z
-x,-y,-z
loop_
_atom_site_type_symbol
_atom_site_label
_atom_site_fract_x
_atom_site_fract_y
_atom_site_fract_z
Si Si1 0.983436 0.748412 0.711440
Si Si2 0.943756 0.788788 0.040645
Si Si3 0.031478 0.499026 0.782563
Si Si4 0.329564 0.533494 0.866946
Si Si5 0.678865 0.251326 0.247054
Si Si6 0.135848 0.007963 0.579040
Si Si7 0.384356 0.093763 0.212250
Si Si8 0.533899 0.292716 0.684682
O O1 0.050225 0.718720 0.869126
O O2 0.792323 0.706812 0.469064
O O3 0.000000 0.500000 0.500000
O O4 0.050752 0.001037 0.896871
O O5 0.060283 0.885569 0.319102
O O6 0.009872 0.568121 0.910559
O O7 0.763463 0.744288 0.846337
O O8 0.853812 0.338756 0.455091
O O9 0.166686 0.319977 0.806205
O O10 0.500000 0.500000 0.000000
O O11 0.313686 0.819786 0.001627
O O12 0.335679 0.557286 0.999335
O O13 0.599356 0.511921 0.331594
O O14 0.722586 0.126832 0.310529
O O15 0.582316 0.015350 0.922398
O O16 0.000000 0.000000 0.500000
O O17 0.529697 0.228245 0.528276
O O18 0.500000 0.000000 0.500000
#
# Coordination Sequence:
#
# PCOD9001483 Si02
#       8
#     2   2   2   2   2   2   2   2
#     4  12  21  39  64  87 126 166 196 254 322 368
#     4  12  22  36  59  91 126 161 203 252 312 368
#     4  11  21  36  55  89 126 158 200 250 307 371
#     4  11  20  37  59  84 121 158 200 247 305 365
#     4  11  19  36  57  83 123 159 199 249 301 360
#     4  10  21  35  56  86 123 169 198 248 307 366
#     4  11  19  34  56  85 120 156 193 246 303 357
#     4  10  22  33  55  85 115 153 196 250 297 358
#
# _framework density 25.327210999999998
#
# number of rings (size 3 to 8) (size 9 to 14) (size 15 to 20)
#    0.000    1.000    8.750    0.375    0.000    3.000 
#    0.000    0.000    0.000    0.750    0.000    1.750 
#    0.000    0.000    0.000    0.000    0.000    0.000 
#
# Total GULP energy -89274.097522 kJ/mol
# GULP energy per Si atom -5579.631095 kJ/mol
# Density = 2.526957 g / cm^3
# Si number density = 25.327211 Si / 1000 Ang^3
#
#
#
# Elastic Constant Matrix: (Units=GPa)
#
#
# Indices 1 2 3 4 5 6 
#
# 1 73.8363 27.8475 24.0349 2.2433 -32.6910 -1.2784
# 2 27.8475 155.1885 22.3140 -2.2449 -25.4345 2.5007
# 3 24.0349 22.3140 92.3228 -1.5538 -60.2989 -3.7746
# 4 2.2433 -2.2449 -1.5538 26.3185 6.8836 -7.0515
# 5 -32.6910 -25.4345 -60.2989 6.8836 57.4179 -6.5673
# 6 -1.2784 2.5007 -3.7746 -7.0515 -6.5673 33.3076
#
#
#
# Elastic Compliance Matrix: (Units=1/GPa)
#
#
# Indices 1 2 3 4 5 6 
#
# 1 0.021717 -0.001637 0.010759 -0.006202 0.024329 0.005660
# 2 -0.001637 0.007115 0.000488 0.000065 0.002725 0.000009
# 3 0.010759 0.000488 0.045635 -0.009122 0.057061 0.014868
# 4 -0.006202 0.000065 -0.009122 0.043858 -0.017827 0.004494
# 5 0.024329 0.002725 0.057061 -0.017827 0.097118 0.022571
# 6 0.005660 0.000009 0.014868 0.004494 0.022571 0.037326
#
#
# Mechanical properties :
#
#
# Convention : Reuss Voigt Hill
#
# Bulk Modulus (GPa) = 10.67384 52.19337 31.43361
# Shear Modulus (GPa) = 18.88366 39.88556 29.38461
#
# Velocity S-wave (km/s) = 2.73351 3.97269 3.40986
# Velocity P-wave (km/s) = 3.76647 6.45720 5.28591
#
# Compressibility (1/GPa) = 0.09368696
#
# Stress axis : x y z
#
# Youngs Moduli (GPa) = 46.04697 140.55065 21.91283
#
# Poissons Ratio (x) = 0.23015 -0.23577
# Poissons Ratio (y) = 0.07540 -0.01069
# Poissons Ratio (z) = -0.49543 -0.06860
#
# Static dielectric constant tensor:
#      x y z
#    x 2.139160 -0.046210 0.041750 
#    y -0.046210 2.171860 0.028670 
#    z 0.041750 0.028670 2.122030 
# 
# From -- ./inp_files/540908.got.cif
#   From: 2010.05.17/outbox.cif.g08.bks.cpg/sg2_271_cif.got.tgz:540908.got - 2010.06.03 11:33:40.
