data_PCOD9001816
_publ_section_title
;
Structure prediction by ZEFSAII (Michael W. Deem and Ramdas Pophale) SiO2 
 PCOD9001816
Probable space group: P -1
;
_chemical_formula_sum "Si O2"
_cell_formula_units_Z 14
_cell_length_a 13.390853
_cell_length_b 10.007034
_cell_length_c 15.884221
_cell_angle_alpha 32.607361
_cell_angle_beta 143.094436
_cell_angle_gamma 149.890538
_cell_volume 555.259753
_symmetry_space_group_name_H-M "P -1"
_symmetry_group_IT_number 2
_symmetry_cell_setting 'triclinic'
loop_
_space_group_symop_operation_xyz
x,y,z
-x,-y,-z
loop_
_atom_site_type_symbol
_atom_site_label
_atom_site_fract_x
_atom_site_fract_y
_atom_site_fract_z
Si Si1 0.360447 0.922024 0.027827
Si Si2 0.005265 0.381409 0.815657
Si Si3 0.398795 0.764782 0.409960
Si Si4 0.406135 0.479772 0.038112
Si Si5 0.833116 0.617809 0.694950
Si Si6 0.131346 0.804790 0.518725
Si Si7 0.260932 0.362863 0.696898
O O1 0.240873 0.583746 0.163113
O O2 0.505951 0.162961 0.071370
O O3 0.500000 0.000000 0.000000
O O4 0.218465 0.030994 0.849768
O O5 0.162467 0.300447 0.985395
O O6 0.757418 0.139792 0.761472
O O7 0.002253 0.591470 0.775312
O O8 0.087922 0.558356 0.689265
O O9 0.353595 0.568798 0.399357
O O10 0.637671 0.019204 0.450994
O O11 0.314041 0.526394 0.556190
O O12 0.500000 0.500000 0.000000
O O13 0.534325 0.436432 0.215865
O O14 0.880958 0.944128 0.571203
O O15 0.947662 0.685054 0.391435
#
# Coordination Sequence:
#
# PCOD9001816 Si02
#       7
#     2   2   2   2   2   2   2
#     4  10  22  38  63 102 131 163 220 269 324 384
#     4   9  22  36  63  91 126 173 225 252 320 395
#     4   9  20  36  59  92 125 174 213 259 322 387
#     4  10  23  46  67  86 134 182 215 268 330 386
#     4  10  21  35  64  96 137 175 209 258 339 392
#     4  11  19  36  62  95 140 164 209 272 328 385
#     4   9  23  36  61  95 127 164 217 265 321 379
#
# _framework density 25.213424
#
# number of rings (size 3 to 8) (size 9 to 14) (size 15 to 20)
#    1.714    0.571    0.000    2.571    2.000    1.714 
#    0.000    3.571    0.000    2.571    0.000    0.000 
#    0.000    0.000    0.000    0.000    0.000    0.000 
#
# Total GULP energy -78176.227567 kJ/mol
# GULP energy per Si atom -5584.016255 kJ/mol
# Density = 2.515604 g / cm^3
# Si number density = 25.213424 Si / 1000 Ang^3
#
#
#
# Elastic Constant Matrix: (Units=GPa)
#
#
# Indices 1 2 3 4 5 6 
#
# 1 118.2576 29.7615 53.9738 5.5320 15.5066 13.6545
# 2 29.7615 95.9740 26.4040 29.8496 16.2398 34.1993
# 3 53.9738 26.4040 123.4588 30.4041 12.8886 19.8461
# 4 5.5320 29.8496 30.4041 35.1773 24.0604 10.6667
# 5 15.5066 16.2398 12.8886 24.0604 49.9335 4.7018
# 6 13.6545 34.1993 19.8461 10.6667 4.7018 43.3744
#
#
#
# Elastic Compliance Matrix: (Units=1/GPa)
#
#
# Indices 1 2 3 4 5 6 
#
# 1 0.013401 -0.005435 -0.007424 0.013467 -0.007053 0.000916
# 2 -0.005435 0.020646 0.004324 -0.019830 0.004558 -0.012163
# 3 -0.007424 0.004324 0.014982 -0.018575 0.006364 -0.004049
# 4 0.013467 -0.019830 -0.018575 0.079760 -0.031721 0.003719
# 5 -0.007053 0.004558 0.006364 -0.031721 0.034397 -0.000213
# 6 0.000916 -0.012163 -0.004049 0.003719 -0.000213 0.033318
#
#
# Mechanical properties :
#
#
# Convention : Reuss Voigt Hill
#
# Bulk Modulus (GPa) = 31.29032 61.99657 46.64344
# Shear Modulus (GPa) = 22.29877 40.86711 31.58294
#
# Velocity S-wave (km/s) = 2.97711 4.03034 3.54308
# Velocity P-wave (km/s) = 4.92491 6.80443 5.93949
#
# Compressibility (1/GPa) = 0.03195877
#
# Stress axis : x y z
#
# Youngs Moduli (GPa) = 74.61922 48.43548 66.74761
#
# Poissons Ratio (x) = 0.26323 0.49553
# Poissons Ratio (y) = 0.40554 -0.28858
# Poissons Ratio (z) = 0.55397 -0.20941
#
# Static dielectric constant tensor:
#      x y z
#    x 1.974930 -0.062000 0.060650 
#    y -0.062000 2.147660 0.042020 
#    z 0.060650 0.042020 1.956360 
# 
# From -- ./inp_files/531655.got.cif
#   From: 2010.05.17/outbox.cif.g08.bks.cpg/sg2_266_cif.got.tgz:531655.got - 2010.06.03 11:33:40.
