data_PCOD9001923
_publ_section_title
;
Structure prediction by ZEFSAII (Michael W. Deem and Ramdas Pophale) SiO2 
 PCOD9001923
Probable space group: P -1
;
_chemical_formula_sum "Si O2"
_cell_formula_units_Z 14
_cell_length_a 13.926075
_cell_length_b 13.769056
_cell_length_c 5.661445
_cell_angle_alpha 93.819322
_cell_angle_beta 94.326638
_cell_angle_gamma 149.760465
_cell_volume 526.048488
_symmetry_space_group_name_H-M "P -1"
_symmetry_group_IT_number 2
_symmetry_cell_setting 'triclinic'
loop_
_space_group_symop_operation_xyz
x,y,z
-x,-y,-z
loop_
_atom_site_type_symbol
_atom_site_label
_atom_site_fract_x
_atom_site_fract_y
_atom_site_fract_z
Si Si1 0.604082 0.428777 0.543948
Si Si2 0.308445 0.875279 0.200916
Si Si3 0.287467 0.016996 0.568739
Si Si4 0.058246 0.339355 0.045389
Si Si5 0.391455 0.752253 0.987095
Si Si6 0.054817 0.953492 0.263732
Si Si7 0.322171 0.318201 0.658981
O O1 0.435260 0.200082 0.435893
O O2 0.510630 0.415728 0.733569
O O3 0.629772 0.528078 0.358156
O O4 0.798016 0.546973 0.688675
O O5 0.320828 0.770839 0.169656
O O6 0.126360 0.751195 0.983765
O O7 0.257562 0.883064 0.439680
O O8 0.518231 0.102676 0.182003
O O9 0.417981 0.131799 0.844451
O O10 0.101212 0.924111 0.498901
O O11 0.968350 0.153477 0.943881
O O12 0.208696 0.516390 0.901775
O O13 0.849469 0.830459 0.206541
O O14 0.215666 0.179089 0.380407
#
# Coordination Sequence:
#
# PCOD9001923 Si02
#       7
#     2   2   2   2   2   2   2
#     4   9  19  33  53  76 105 140 175 218 269 311
#     4  10  21  37  57  81 110 143 177 222 273 318
#     4   9  19  36  55  80 108 142 179 220 265 323
#     4  10  21  36  54  82 106 138 182 224 263 322
#     4  10  21  37  57  81 110 143 177 222 273 318
#     4   9  19  33  53  76 105 140 175 218 269 311
#     4   9  18  34  51  74 106 140 175 218 264 325
#
# _framework density 26.613519
#
# number of rings (size 3 to 8) (size 9 to 14) (size 15 to 20)
#    0.000    2.571    0.000    0.857    4.000    1.143 
#    0.000    0.000    0.000    8.571    0.000    0.000 
#    0.000    0.000    0.000    0.000    0.000    0.000 
#
# Total GULP energy -78073.559944 kJ/mol
# GULP energy per Si atom -5576.682853 kJ/mol
# Density = 2.655295 g / cm^3
# Si number density = 26.613519 Si / 1000 Ang^3
#
#
#
# Elastic Constant Matrix: (Units=GPa)
#
#
# Indices 1 2 3 4 5 6 
#
# 1 115.1563 -0.1082 22.1034 8.4616 3.1560 -5.8686
# 2 -0.1082 104.3054 17.3992 8.4629 -5.0909 -4.2062
# 3 22.1034 17.3992 47.8048 13.2585 3.2978 -0.3274
# 4 8.4616 8.4629 13.2585 16.3911 -0.9519 4.1425
# 5 3.1560 -5.0909 3.2978 -0.9519 25.1633 15.2728
# 6 -5.8686 -4.2062 -0.3274 4.1425 15.2728 41.9288
#
#
#
# Elastic Compliance Matrix: (Units=1/GPa)
#
#
# Indices 1 2 3 4 5 6 
#
# 1 0.009847 0.000904 -0.003808 -0.003251 -0.002240 0.002576
# 2 0.000904 0.010554 -0.003505 -0.003169 0.001885 0.000784
# 3 -0.003808 -0.003505 0.030836 -0.022750 -0.007840 0.004459
# 4 -0.003251 -0.003169 -0.022750 0.087438 0.015246 -0.015143
# 5 -0.002240 0.001885 -0.007840 0.015246 0.055248 -0.021816
# 6 0.002576 0.000784 0.004459 -0.015143 -0.021816 0.033767
#
#
# Mechanical properties :
#
#
# Convention : Reuss Voigt Hill
#
# Bulk Modulus (GPa) = 26.02930 38.45059 32.23995
# Shear Modulus (GPa) = 19.73837 31.88810 25.81324
#
# Velocity S-wave (km/s) = 2.72631 3.46525 3.11775
# Velocity P-wave (km/s) = 4.43983 5.52175 5.01008
#
# Compressibility (1/GPa) = 0.03841824
#
# Stress axis : x y z
#
# Youngs Moduli (GPa) = 101.55169 94.75464 32.42993
#
# Poissons Ratio (x) = -0.08564 0.12350
# Poissons Ratio (y) = -0.09178 0.11366
# Poissons Ratio (z) = 0.38673 0.33208
#
# Static dielectric constant tensor:
#      x y z
#    x 2.076400 0.044850 -0.033660 
#    y 0.044850 2.160290 -0.054260 
#    z -0.033660 -0.054260 2.112790 
# 
# From -- ./inp_files/74654.got.cif
#   From: 2010.05.17/outbox.cif.g08.bks.cpg/sg2_38_cif.got.tgz:74654.got - 2010.06.03 11:33:40.
