data_PCOD9001967
_publ_section_title
;
Structure prediction by ZEFSAII (Michael W. Deem and Ramdas Pophale) SiO2 
 PCOD9001967
Probable space group: P -1
;
_chemical_formula_sum "Si O2"
_cell_formula_units_Z 16
_cell_length_a 11.124054
_cell_length_b 12.134076
_cell_length_c 14.345988
_cell_angle_alpha 101.615482
_cell_angle_beta 149.953544
_cell_angle_gamma 67.840661
_cell_volume 864.633907
_symmetry_space_group_name_H-M "P -1"
_symmetry_group_IT_number 2
_symmetry_cell_setting 'triclinic'
loop_
_space_group_symop_operation_xyz
x,y,z
-x,-y,-z
loop_
_atom_site_type_symbol
_atom_site_label
_atom_site_fract_x
_atom_site_fract_y
_atom_site_fract_z
Si Si1 0.346606 0.121324 0.045297
Si Si2 0.134087 0.560356 0.673088
Si Si3 0.968150 0.893385 0.708590
Si Si4 0.062964 0.915246 0.121555
Si Si5 0.505888 0.707461 0.113801
Si Si6 0.202713 0.144334 0.749063
Si Si7 0.619861 0.758468 0.410769
Si Si8 0.232718 0.784749 0.684990
O O1 0.487984 0.214708 0.152117
O O2 0.580097 0.984855 0.166274
O O3 0.172790 0.139520 0.838468
O O4 0.175680 0.122340 0.020149
O O5 0.382971 0.438585 0.849705
O O6 0.218943 0.661572 0.698658
O O7 0.000000 0.500000 0.500000
O O8 0.888055 0.635969 0.589392
O O9 0.096137 0.888895 0.691529
O O10 0.712608 0.867679 0.512292
O O11 0.200020 0.778838 0.896964
O O12 0.916909 0.005115 0.762768
O O13 0.339843 0.796650 0.277529
O O14 0.000000 0.000000 0.000000
O O15 0.669359 0.758252 0.165646
O O16 0.562190 0.745713 0.261022
O O17 0.944955 0.181551 0.520412
#
# Coordination Sequence:
#
# PCOD9001967 Si02
#       8
#     2   2   2   2   2   2   2   2
#     4  11  23  36  55  85 117 159 191 232 300 348
#     4   9  19  35  64  91 113 152 192 247 291 335
#     4  11  20  35  61  89 115 148 195 238 296 345
#     4  12  23  40  57  79 124 162 191 240 283 351
#     4  11  18  38  62  91 117 148 192 250 295 329
#     4  11  19  38  56  85 125 146 187 248 291 345
#     4  10  21  36  55  85 116 153 192 234 287 343
#     4  11  21  36  60  91 118 149 192 243 297 342
#
# _framework density 18.504942
#
# number of rings (size 3 to 8) (size 9 to 14) (size 15 to 20)
#    0.000    1.250    7.500    1.500    0.000    2.000 
#    2.250    0.000    0.000    3.750    0.000    0.000 
#    0.000    0.000    0.000    0.000    0.000    0.000 
#
# Total GULP energy -89197.475203 kJ/mol
# GULP energy per Si atom -5574.842200 kJ/mol
# Density = 1.846282 g / cm^3
# Si number density = 18.504942 Si / 1000 Ang^3
#
#
#
# Elastic Constant Matrix: (Units=GPa)
#
#
# Indices 1 2 3 4 5 6 
#
# 1 97.1066 40.7958 26.6941 1.9476 18.5696 11.6976
# 2 40.7958 90.6843 31.1942 4.4567 4.8440 4.0056
# 3 26.6941 31.1942 84.4006 6.6877 -1.7877 5.9332
# 4 1.9476 4.4567 6.6877 37.5962 -1.3923 3.9291
# 5 18.5696 4.8440 -1.7877 -1.3923 29.7222 1.5438
# 6 11.6976 4.0056 5.9332 3.9291 1.5438 19.7826
#
#
#
# Elastic Compliance Matrix: (Units=1/GPa)
#
#
# Indices 1 2 3 4 5 6 
#
# 1 0.015835 -0.005437 -0.002757 0.000710 -0.008782 -0.006891
# 2 -0.005437 0.014701 -0.003731 -0.000929 0.000655 0.001491
# 3 -0.002757 -0.003731 0.014430 -0.001668 0.003217 -0.001862
# 4 0.000710 -0.000929 -0.001668 0.027566 0.001174 -0.005298
# 5 -0.008782 0.000655 0.003217 0.001174 0.039232 0.000800
# 6 -0.006891 0.001491 -0.001862 -0.005298 0.000800 0.055871
#
#
# Mechanical properties :
#
#
# Convention : Reuss Voigt Hill
#
# Bulk Modulus (GPa) = 47.35443 52.17331 49.76387
# Shear Modulus (GPa) = 25.18586 28.98735 27.08661
#
# Velocity S-wave (km/s) = 3.69322 3.96215 3.83005
# Velocity P-wave (km/s) = 6.62059 7.01335 6.81980
#
# Compressibility (1/GPa) = 0.02111735
#
# Stress axis : x y z
#
# Youngs Moduli (GPa) = 63.15084 68.02057 69.29784
#
# Poissons Ratio (x) = 0.36981 0.19103
# Poissons Ratio (y) = 0.34334 0.25858
# Poissons Ratio (z) = 0.17409 0.25381
#
# Static dielectric constant tensor:
#      x y z
#    x 1.642360 0.011130 -0.008320 
#    y 0.011130 1.676450 -0.001870 
#    z -0.008320 -0.001870 1.693970 
# 
# From -- ./inp_files/518982.got.cif
#   From: 2010.05.17/outbox.cif.g08.bks.cpg/sg2_260_cif.got.tgz:518982.got - 2010.06.03 11:33:40.
