data_PCOD9001718
_publ_section_title
;
Structure prediction by ZEFSAII (Michael W. Deem and Ramdas Pophale) SiO2 
 PCOD9001718
Probable space group: P -1
;
_chemical_formula_sum "Si O2"
_cell_formula_units_Z 14
_cell_length_a 12.730448
_cell_length_b 7.332384
_cell_length_c 9.212558
_cell_angle_alpha 123.288597
_cell_angle_beta 50.911092
_cell_angle_gamma 97.831059
_cell_volume 527.961396
_symmetry_space_group_name_H-M "P -1"
_symmetry_group_IT_number 2
_symmetry_cell_setting 'triclinic'
loop_
_space_group_symop_operation_xyz
x,y,z
-x,-y,-z
loop_
_atom_site_type_symbol
_atom_site_label
_atom_site_fract_x
_atom_site_fract_y
_atom_site_fract_z
Si Si1 0.000373 0.556676 0.857307
Si Si2 0.403978 0.301197 0.907235
Si Si3 0.689977 0.445391 0.431932
Si Si4 0.619252 0.287319 0.114964
Si Si5 0.287440 0.933672 0.340739
Si Si6 0.116216 0.599328 0.368369
Si Si7 0.733108 0.959122 0.292761
O O1 0.160206 0.519696 0.653002
O O2 0.931023 0.399072 0.757525
O O3 0.000000 0.500000 0.000000
O O4 0.892668 0.816199 0.039224
O O5 0.386777 0.500469 0.891797
O O6 0.550422 0.227498 0.832897
O O7 0.373648 0.102971 0.752409
O O8 0.269228 0.404476 0.174161
O O9 0.689974 0.334938 0.222958
O O10 0.547671 0.663334 0.676200
O O11 0.691071 0.232303 0.440500
O O12 0.699592 0.066122 0.846904
O O13 0.157743 0.832474 0.449012
O O14 0.273521 0.113306 0.564613
O O15 0.000000 0.500000 0.500000
#
# Coordination Sequence:
#
# PCOD9001718 Si02
#       7
#     2   2   2   2   2   2   2
#     4  11  24  44  64  86 128 170 207 251 324 375
#     4  10  21  39  63  90 129 168 207 249 315 369
#     4  11  22  39  65  94 130 158 213 258 310 365
#     4  10  22  39  66  93 125 167 206 254 310 369
#     4  11  21  39  64  93 126 164 212 252 310 365
#     4  10  21  35  61  94 121 163 212 253 303 368
#     4  11  23  39  66  94 122 167 207 258 312 371
#
# _framework density 26.517092999999999
#
# number of rings (size 3 to 8) (size 9 to 14) (size 15 to 20)
#    0.000    1.429    1.429    6.000    2.000    1.143 
#    0.000    6.429    0.000    0.000    0.000    0.000 
#    0.000    0.000    0.000    0.000    0.000    0.000 
#
# Total GULP energy -78221.371605 kJ/mol
# GULP energy per Si atom -5587.240829 kJ/mol
# Density = 2.645674 g / cm^3
# Si number density = 26.517093 Si / 1000 Ang^3
#
#
#
# Elastic Constant Matrix: (Units=GPa)
#
#
# Indices 1 2 3 4 5 6 
#
# 1 154.4523 13.2670 29.2913 -10.3887 9.3142 19.9906
# 2 13.2670 52.5235 3.3767 -10.5780 -7.6377 2.6165
# 3 29.2913 3.3767 101.8274 -20.5073 -3.6608 6.3396
# 4 -10.3887 -10.5780 -20.5073 32.4788 5.6428 -3.2226
# 5 9.3142 -7.6377 -3.6608 5.6428 65.6781 -6.8667
# 6 19.9906 2.6165 6.3396 -3.2226 -6.8667 32.1770
#
#
#
# Elastic Compliance Matrix: (Units=1/GPa)
#
#
# Indices 1 2 3 4 5 6 
#
# 1 0.007733 -0.001761 -0.001820 0.000627 -0.001943 -0.004654
# 2 -0.001761 0.021066 0.001222 0.006712 0.002221 0.000286
# 3 -0.001820 0.001222 0.011786 0.007141 0.000392 -0.000492
# 4 0.000627 0.006712 0.007141 0.038148 -0.002080 0.001035
# 5 -0.001943 0.002221 0.000392 -0.002080 0.016404 0.004242
# 6 -0.004654 0.000286 -0.000492 0.001035 0.004242 0.035052
#
#
# Mechanical properties :
#
#
# Convention : Reuss Voigt Hill
#
# Bulk Modulus (GPa) = 27.88102 44.51926 36.20014
# Shear Modulus (GPa) = 34.04552 43.59133 38.81842
#
# Velocity S-wave (km/s) = 3.58705 4.05890 3.83025
# Velocity P-wave (km/s) = 5.26243 6.22828 5.76562
#
# Compressibility (1/GPa) = 0.03586670
#
# Stress axis : x y z
#
# Youngs Moduli (GPa) = 129.32287 47.47066 84.84385
#
# Poissons Ratio (x) = 0.08358 0.15440
# Poissons Ratio (y) = 0.22770 -0.10364
# Poissons Ratio (z) = 0.23535 -0.05799
#
# Static dielectric constant tensor:
#      x y z
#    x 1.992610 0.016890 0.038020 
#    y 0.016890 2.176890 -0.007080 
#    z 0.038020 -0.007080 2.221680 
# 
# From -- ./inp_files/159421.got.cif
#   From: 2010.05.17/outbox.cif.g08.bks.cpg/sg2_80_cif.got.tgz:159421.got - 2010.06.03 11:33:40.
