data_PCOD9001761
_publ_section_title
;
Structure prediction by ZEFSAII (Michael W. Deem and Ramdas Pophale) SiO2 
 PCOD9001761
Probable space group: P -1
;
_chemical_formula_sum "Si O2"
_cell_formula_units_Z 16
_cell_length_a 9.105234
_cell_length_b 10.183448
_cell_length_c 16.044620
_cell_angle_alpha 72.083063
_cell_angle_beta 147.992686
_cell_angle_gamma 100.187546
_cell_volume 739.800987
_symmetry_space_group_name_H-M "P -1"
_symmetry_group_IT_number 2
_symmetry_cell_setting 'triclinic'
loop_
_space_group_symop_operation_xyz
x,y,z
-x,-y,-z
loop_
_atom_site_type_symbol
_atom_site_label
_atom_site_fract_x
_atom_site_fract_y
_atom_site_fract_z
Si Si1 0.542863 0.022110 0.318664
Si Si2 0.020225 0.210586 0.502387
Si Si3 0.059927 0.223056 0.959866
Si Si4 0.706455 0.441826 0.855651
Si Si5 0.203516 0.641801 0.482405
Si Si6 0.666166 0.187042 0.631866
Si Si7 0.129791 0.398747 0.373534
Si Si8 0.296492 0.498728 0.979748
O O1 0.760337 0.129914 0.408922
O O2 0.481266 0.944611 0.389366
O O3 0.254322 0.100800 0.126207
O O4 0.700512 0.901633 0.356405
O O5 0.019470 0.313206 0.560237
O O6 0.980962 0.299310 0.380996
O O7 0.248101 0.342426 0.007625
O O8 0.802046 0.300533 0.877440
O O9 0.935197 0.176171 0.823309
O O10 0.478551 0.551464 0.675396
O O11 0.606498 0.430762 0.904587
O O12 0.000000 0.500000 0.000000
O O13 0.266550 0.778298 0.436781
O O14 0.108591 0.543263 0.384680
O O15 0.448418 0.323337 0.531009
O O16 0.997017 0.420957 0.214176
O O17 0.500000 0.500000 0.000000
#
# Coordination Sequence:
#
# PCOD9001761 Si02
#       8
#     2   2   2   2   2   2   2   2
#     4  10  23  42  60  82 124 169 208 238 299 360
#     4  10  23  41  62  87 119 170 201 247 297 370
#     4  11  20  40  59  87 125 159 202 247 302 362
#     4  10  21  35  62  92 126 154 195 251 309 363
#     4  12  21  39  64  96 122 150 206 257 310 356
#     4  11  22  38  63  90 120 164 200 255 297 359
#     4  11  21  39  65  91 127 153 199 254 316 359
#     4  11  22  37  60  94 126 160 192 252 314 360
#
# _framework density 21.627438000000001
#
# number of rings (size 3 to 8) (size 9 to 14) (size 15 to 20)
#    0.000    1.250    2.500    5.625    0.000    0.500 
#    0.000    4.375    0.000    0.000    0.000    0.000 
#    0.000    0.000    0.000    0.000    0.000    0.000 
#
# Total GULP energy -89448.030946 kJ/mol
# GULP energy per Si atom -5590.501934 kJ/mol
# Density = 2.157821 g / cm^3
# Si number density = 21.627438 Si / 1000 Ang^3
#
#
#
# Elastic Constant Matrix: (Units=GPa)
#
#
# Indices 1 2 3 4 5 6 
#
# 1 97.3188 17.7064 37.9379 -10.5455 -23.5872 -0.6833
# 2 17.7064 59.0837 26.2814 -8.3046 -7.2566 11.2801
# 3 37.9379 26.2814 122.9770 -18.1098 -20.8970 -4.1778
# 4 -10.5455 -8.3046 -18.1098 32.5998 1.2615 -5.0227
# 5 -23.5872 -7.2566 -20.8970 1.2615 31.1447 0.0772
# 6 -0.6833 11.2801 -4.1778 -5.0227 0.0772 23.2499
#
#
#
# Elastic Compliance Matrix: (Units=1/GPa)
#
#
# Indices 1 2 3 4 5 6 
#
# 1 0.013791 -0.002185 -0.001861 0.002802 0.008569 0.001708
# 2 -0.002185 0.021741 -0.004127 0.000791 0.000637 -0.011185
# 3 -0.001861 -0.004127 0.011396 0.005270 0.005049 0.005117
# 4 0.002802 0.000791 0.005270 0.035831 0.004371 0.008372
# 5 0.008569 0.000637 0.005049 0.004371 0.041953 0.001655
# 6 0.001708 -0.011185 0.005117 0.008372 0.001655 0.051210
#
#
# Mechanical properties :
#
#
# Convention : Reuss Voigt Hill
#
# Bulk Modulus (GPa) = 32.69997 49.24789 40.97393
# Shear Modulus (GPa) = 24.69598 30.56247 27.62923
#
# Velocity S-wave (km/s) = 3.38284 3.76325 3.57810
# Velocity P-wave (km/s) = 5.51458 6.45780 6.00474
#
# Compressibility (1/GPa) = 0.03058107
#
# Stress axis : x y z
#
# Youngs Moduli (GPa) = 72.51115 45.99661 87.75322
#
# Poissons Ratio (x) = 0.10050 0.16328
# Poissons Ratio (y) = 0.15844 0.36220
# Poissons Ratio (z) = 0.13492 0.18985
#
# Static dielectric constant tensor:
#      x y z
#    x 1.833160 0.023140 0.018700 
#    y 0.023140 1.824710 0.018020 
#    z 0.018700 0.018020 1.790810 
# 
# From -- ./inp_files/187436.got.cif
#   From: 2010.05.17/outbox.cif.g08.bks.cpg/sg2_94_cif.got.tgz:187436.got - 2010.06.03 11:33:40.
