data_PCOD9001101
_publ_section_title
;
Structure prediction by ZEFSAII (Michael W. Deem and Ramdas Pophale) SiO2 
 PCOD9001101
Probable space group: P -1
;
_chemical_formula_sum "Si O2"
_cell_formula_units_Z 16
_cell_length_a 5.037101
_cell_length_b 21.350642
_cell_length_c 12.305441
_cell_angle_alpha 123.747060
_cell_angle_beta 53.662923
_cell_angle_gamma 101.907391
_cell_volume 871.386527
_symmetry_space_group_name_H-M "P -1"
_symmetry_group_IT_number 2
_symmetry_cell_setting 'triclinic'
loop_
_space_group_symop_operation_xyz
x,y,z
-x,-y,-z
loop_
_atom_site_type_symbol
_atom_site_label
_atom_site_fract_x
_atom_site_fract_y
_atom_site_fract_z
Si Si1 0.969173 0.595712 0.778126
Si Si2 0.620672 0.912658 0.916628
Si Si3 0.753013 0.178378 0.221379
Si Si4 0.993739 0.422012 0.662514
Si Si5 0.761299 0.580397 0.163730
Si Si6 0.700745 0.202380 0.024458
Si Si7 0.796215 0.332141 0.995258
Si Si8 0.002957 0.685096 0.643274
O O1 0.007598 0.504638 0.687355
O O2 0.577177 0.634663 0.924752
O O3 0.085886 0.624854 0.663175
O O4 0.167147 0.624629 0.857723
O O5 0.561665 0.857560 0.776417
O O6 0.390875 0.881999 0.036021
O O7 0.995030 0.888796 0.845381
O O8 0.500000 0.000000 0.000000
O O9 0.899086 0.199883 0.088315
O O10 0.736266 0.256112 0.367410
O O11 0.608594 0.422705 0.791897
O O12 0.229271 0.411086 0.700210
O O13 0.055189 0.357451 0.493723
O O14 0.000000 0.500000 0.000000
O O15 0.927503 0.645402 0.129595
O O16 0.847495 0.242500 0.928054
O O17 0.349339 0.259866 0.188837
#
# Coordination Sequence:
#
# PCOD9001101 Si02
#       8
#     2   2   2   2   2   2   2   2
#     4  11  19  34  51  70  90 129 160 224 248 295
#     4   9  16  28  48  76 106 130 152 179 234 303
#     4   9  17  30  47  70 103 133 147 189 239 286
#     4  12  24  34  52  69  94 130 173 220 246 296
#     4  12  23  38  49  67  93 131 174 219 255 284
#     4   8  19  32  50  74  98 135 149 202 243 291
#     4  11  20  34  53  64  99 127 174 198 258 292
#     4  10  21  34  49  74 101 126 170 199 261 295
#
# _framework density 18.361540000000002
#
# number of rings (size 3 to 8) (size 9 to 14) (size 15 to 20)
#    0.750    1.000    3.750    1.875    1.750    0.000 
#    0.000    3.125    0.000    0.000    0.000    0.000 
#    0.000   14.000    0.000    0.000    0.000    0.000 
#
# Total GULP energy -89165.642725 kJ/mol
# GULP energy per Si atom -5572.852670 kJ/mol
# Density = 1.831975 g / cm^3
# Si number density = 18.361540 Si / 1000 Ang^3
#
#
#
# Elastic Constant Matrix: (Units=GPa)
#
#
# Indices 1 2 3 4 5 6 
#
# 1 74.1941 -0.5160 -3.4107 4.5495 5.9759 -6.3162
# 2 -0.5160 129.1743 16.7746 7.7844 1.6447 -7.5852
# 3 -3.4107 16.7746 23.4153 -1.7411 8.6398 -2.8002
# 4 4.5495 7.7844 -1.7411 12.5511 0.5764 0.9293
# 5 5.9759 1.6447 8.6398 0.5764 22.5962 -1.5946
# 6 -6.3162 -7.5852 -2.8002 0.9293 -1.5946 27.7343
#
#
#
# Elastic Compliance Matrix: (Units=1/GPa)
#
#
# Indices 1 2 3 4 5 6 
#
# 1 0.014677 0.000113 0.003988 -0.004876 -0.005033 0.003650
# 2 0.000113 0.009293 -0.007893 -0.007181 0.002648 0.002163
# 3 0.003988 -0.007893 0.058721 0.012436 -0.023042 0.002937
# 4 -0.004876 -0.007181 0.012436 0.088253 -0.005554 -0.005095
# 5 -0.005033 0.002648 -0.023042 -0.005554 0.054385 0.000564
# 6 0.003650 0.002163 0.002937 -0.005095 0.000564 0.037979
#
#
# Mechanical properties :
#
#
# Convention : Reuss Voigt Hill
#
# Bulk Modulus (GPa) = 13.31442 28.05329 20.68386
# Shear Modulus (GPa) = 16.89596 26.83871 21.86733
#
# Velocity S-wave (km/s) = 3.03674 3.82734 3.45473
# Velocity P-wave (km/s) = 4.42298 5.90278 5.21563
#
# Compressibility (1/GPa) = 0.07510652
#
# Stress axis : x y z
#
# Youngs Moduli (GPa) = 68.13207 107.60765 17.02978
#
# Poissons Ratio (x) = -0.01216 -0.06791
# Poissons Ratio (y) = -0.00770 0.13442
# Poissons Ratio (z) = -0.27170 0.84936
#
# Static dielectric constant tensor:
#      x y z
#    x 1.679050 0.020450 -0.007570 
#    y 0.020450 1.684600 -0.023200 
#    z -0.007570 -0.023200 1.638030 
# 
# From -- ./inp_files/118000.got.cif
#   From: 2010.05.17/outbox.cif.g08.bks.cpg/sg2_59_cif.got.tgz:118000.got - 2010.06.03 11:33:40.
