data_PCOD9001854
_publ_section_title
;
Structure prediction by ZEFSAII (Michael W. Deem and Ramdas Pophale) SiO2 
 PCOD9001854
Probable space group: P -1
;
_chemical_formula_sum "Si O2"
_cell_formula_units_Z 14
_cell_length_a 8.766252
_cell_length_b 14.711255
_cell_length_c 8.794514
_cell_angle_alpha 39.757605
_cell_angle_beta 73.284113
_cell_angle_gamma 57.191666
_cell_volume 591.851623
_symmetry_space_group_name_H-M "P -1"
_symmetry_group_IT_number 2
_symmetry_cell_setting 'triclinic'
loop_
_space_group_symop_operation_xyz
x,y,z
-x,-y,-z
loop_
_atom_site_type_symbol
_atom_site_label
_atom_site_fract_x
_atom_site_fract_y
_atom_site_fract_z
Si Si1 0.347009 0.417017 0.492841
Si Si2 0.699540 0.864823 0.038306
Si Si3 0.001106 0.056706 0.169326
Si Si4 0.345774 0.747238 0.154745
Si Si5 0.652818 0.610489 0.825787
Si Si6 0.230216 0.754721 0.710133
Si Si7 0.612637 0.833562 0.778836
O O1 0.247823 0.324432 0.708446
O O2 0.313397 0.595134 0.322867
O O3 0.560263 0.292286 0.654682
O O4 0.304329 0.420154 0.324346
O O5 0.858410 0.896401 0.004489
O O6 0.692319 0.882034 0.835939
O O7 0.500000 0.000000 0.000000
O O8 0.892018 0.178627 0.187406
O O9 0.116796 0.878466 0.446986
O O10 0.845180 0.088632 0.050268
O O11 0.496688 0.759236 0.989614
O O12 0.427532 0.735693 0.721392
O O13 0.737721 0.694554 0.796749
O O14 0.708699 0.433195 0.106240
O O15 0.500000 0.000000 0.500000
#
# Coordination Sequence:
#
# PCOD9001854 Si02
#       7
#     2   2   2   2   2   2   2
#     4  10  21  39  66  93 131 173 217 254 325 396
#     4  11  25  41  62  92 132 176 215 270 333 387
#     4  11  21  41  68  99 132 168 218 279 318 375
#     4  10  21  40  65  96 127 173 218 263 319 386
#     4  11  19  41  67  96 126 178 214 260 326 401
#     4  10  21  35  70  98 128 165 219 268 326 376
#     4  11  22  38  67  94 126 174 218 265 324 393
#
# _framework density 23.654577
#
# number of rings (size 3 to 8) (size 9 to 14) (size 15 to 20)
#    0.000    1.429    2.857    3.429    2.000    0.571 
#    0.000    7.143    3.143    0.000    0.000    0.000 
#    0.000    0.000    0.000    0.000    0.000    0.000 
#
# Total GULP energy -78150.242168 kJ/mol
# GULP energy per Si atom -5582.160155 kJ/mol
# Density = 2.360074 g / cm^3
# Si number density = 23.654577 Si / 1000 Ang^3
#
#
#
# Elastic Constant Matrix: (Units=GPa)
#
#
# Indices 1 2 3 4 5 6 
#
# 1 40.2864 1.3486 32.4687 -0.0335 9.9994 11.1515
# 2 1.3486 61.2941 14.4806 -7.1041 4.0140 26.4628
# 3 32.4687 14.4806 144.6923 -16.8762 9.6036 9.4355
# 4 -0.0335 -7.1041 -16.8762 27.0204 4.8351 2.5232
# 5 9.9994 4.0140 9.6036 4.8351 42.7656 1.6025
# 6 11.1515 26.4628 9.4355 2.5232 1.6025 41.0923
#
#
#
# Elastic Compliance Matrix: (Units=1/GPa)
#
#
# Indices 1 2 3 4 5 6 
#
# 1 0.035569 0.006438 -0.007485 -0.000635 -0.006727 -0.011778
# 2 0.006438 0.025608 -0.001624 0.008103 -0.003778 -0.018215
# 3 -0.007485 -0.001624 0.009418 0.005543 -0.000862 0.000608
# 4 -0.000635 0.008103 0.005543 0.044598 -0.006569 -0.008801
# 5 -0.006727 -0.003778 -0.000862 -0.006569 0.026103 0.003842
# 6 -0.011778 -0.018215 0.000608 -0.008801 0.003842 0.039513
#
#
# Mechanical properties :
#
#
# Convention : Reuss Voigt Hill
#
# Bulk Modulus (GPa) = 15.32525 38.09653 26.71089
# Shear Modulus (GPa) = 24.04981 35.37399 29.71190
#
# Velocity S-wave (km/s) = 3.19205 3.87129 3.54796
# Velocity P-wave (km/s) = 4.48089 6.01022 5.30100
#
# Compressibility (1/GPa) = 0.06525177
#
# Stress axis : x y z
#
# Youngs Moduli (GPa) = 28.11430 39.05095 106.18501
#
# Poissons Ratio (x) = -0.25141 0.79484
# Poissons Ratio (y) = -0.18100 0.17241
# Poissons Ratio (z) = 0.21045 0.06341
#
# Static dielectric constant tensor:
#      x y z
#    x 1.933820 0.009970 0.005630 
#    y 0.009970 2.008290 0.031800 
#    z 0.005630 0.031800 1.914220 
# 
# From -- ./inp_files/205113.got.cif
#   From: 2010.05.17/outbox.cif.g08.bks.cpg/sg2_103_cif.got.tgz:205113.got - 2010.06.03 11:33:40.
