data_PCOD9002972
_publ_section_title
;
Structure prediction by ZEFSAII (Michael W. Deem and Ramdas Pophale) SiO2 
 PCOD9002972
Probable space group: P -1
;
_chemical_formula_sum "Si O2"
_cell_formula_units_Z 12
_cell_length_a 20.903218
_cell_length_b 9.466099
_cell_length_c 5.454081
_cell_angle_alpha 98.095062
_cell_angle_beta 101.401736
_cell_angle_gamma 145.587948
_cell_volume 499.876779
_symmetry_space_group_name_H-M "P -1"
_symmetry_group_IT_number 2
_symmetry_cell_setting 'triclinic'
loop_
_space_group_symop_operation_xyz
x,y,z
-x,-y,-z
loop_
_atom_site_type_symbol
_atom_site_label
_atom_site_fract_x
_atom_site_fract_y
_atom_site_fract_z
Si Si1 0.141387 0.321333 0.936427
Si Si2 0.750335 0.363482 0.395868
Si Si3 0.308138 0.251882 0.864903
Si Si4 0.013687 0.787772 0.531000
Si Si5 0.468440 0.315593 0.238605
Si Si6 0.492250 0.149384 0.605853
O O1 0.237056 0.517379 0.811520
O O2 0.063168 0.023018 0.775706
O O3 0.210329 0.476044 0.287034
O O4 0.032913 0.239898 0.775676
O O5 0.600427 0.019288 0.261024
O O6 0.868896 0.472916 0.469518
O O7 0.364229 0.202497 0.960637
O O8 0.370094 0.495164 0.151241
O O9 0.387461 0.441654 0.721518
O O10 0.145310 0.942945 0.657603
O O11 0.500000 0.500000 0.500000
O O12 0.417234 0.087983 0.311775
O O13 0.500000 0.000000 0.500000
#
# Coordination Sequence:
#
# PCOD9002972 Si02
#       6
#     2   2   2   2   2   2
#     4   9  20  34  58  85 131 160 205 253 311 375
#     4  10  21  37  55  92 127 162 198 265 315 366
#     4  10  21  42  63  89 120 170 212 255 311 383
#     4   9  20  33  62  83 120 166 213 251 306 377
#     4   9  22  40  60  86 125 166 210 256 311 382
#     4  11  24  36  64  95 130 160 205 264 324 372
#
# _framework density 24.005918000000001
#
# number of rings (size 3 to 8) (size 9 to 14) (size 15 to 20)
#    1.000    1.333    0.000    1.500    4.667    3.333 
#    0.000    0.833    0.000   10.000    0.000    0.000 
#    0.000    0.000    0.000    0.000    0.000    0.000 
#
# Total GULP energy -66933.021496 kJ/mol
# GULP energy per Si atom -5577.751791 kJ/mol
# Density = 2.395128 g / cm^3
# Si number density = 24.005918 Si / 1000 Ang^3
#
#
#
# Elastic Constant Matrix: (Units=GPa)
#
#
# Indices 1 2 3 4 5 6 
#
# 1 119.1193 45.0312 -0.9116 -0.8049 8.2552 10.1449
# 2 45.0312 121.7638 19.8906 -12.4329 5.0032 13.0594
# 3 -0.9116 19.8906 73.7270 -4.6752 -17.6902 -2.9937
# 4 -0.8049 -12.4329 -4.6752 42.3422 3.0484 -0.1582
# 5 8.2552 5.0032 -17.6902 3.0484 29.1648 8.4136
# 6 10.1449 13.0594 -2.9937 -0.1582 8.4136 48.6723
#
#
#
# Elastic Compliance Matrix: (Units=1/GPa)
#
#
# Indices 1 2 3 4 5 6 
#
# 1 0.009975 -0.003734 0.000704 -0.000727 -0.001453 -0.000785
# 2 -0.003734 0.010766 -0.003483 0.002891 -0.002670 -0.001854
# 3 0.000704 -0.003483 0.017101 0.000104 0.010766 -0.000021
# 4 -0.000727 0.002891 0.000104 0.024664 -0.002789 -0.000055
# 5 -0.001453 -0.002670 0.010766 -0.002789 0.043675 -0.005877
# 6 -0.000785 -0.001854 -0.000021 -0.000055 -0.005877 0.022221
#
#
# Mechanical properties :
#
#
# Convention : Reuss Voigt Hill
#
# Bulk Modulus (GPa) = 40.29843 49.18117 44.73980
# Shear Modulus (GPa) = 33.39989 40.74252 37.07121
#
# Velocity S-wave (km/s) = 3.73409 4.12416 3.93396
# Velocity P-wave (km/s) = 5.95101 6.57342 6.26994
#
# Compressibility (1/GPa) = 0.02481487
#
# Stress axis : x y z
#
# Youngs Moduli (GPa) = 100.25408 92.88145 58.47585
#
# Poissons Ratio (x) = 0.34684 -0.04117
# Poissons Ratio (y) = 0.37438 0.20370
# Poissons Ratio (z) = -0.07059 0.32355
#
# Static dielectric constant tensor:
#      x y z
#    x 1.954540 0.027200 0.019780 
#    y 0.027200 1.958650 0.021580 
#    z 0.019780 0.021580 2.058680 
# 
# From -- ./inp_files/115165.got.cif
#   From: 2010.05.17/outbox.cif.g08.bks.cpg/sg2_58_cif.got.tgz:115165.got - 2010.06.03 11:33:40.
