data_PCOD9002592
_publ_section_title
;
Structure prediction by ZEFSAII (Michael W. Deem and Ramdas Pophale) SiO2 
 PCOD9002592
Probable space group: P -1
;
_chemical_formula_sum "Si O2"
_cell_formula_units_Z 16
_cell_length_a 17.000936
_cell_length_b 10.195675
_cell_length_c 15.741131
_cell_angle_alpha 31.253473
_cell_angle_beta 147.771061
_cell_angle_gamma 127.966554
_cell_volume 695.111384
_symmetry_space_group_name_H-M "P -1"
_symmetry_group_IT_number 2
_symmetry_cell_setting 'triclinic'
loop_
_space_group_symop_operation_xyz
x,y,z
-x,-y,-z
loop_
_atom_site_type_symbol
_atom_site_label
_atom_site_fract_x
_atom_site_fract_y
_atom_site_fract_z
Si Si1 0.096473 0.300583 0.306059
Si Si2 0.489612 0.594775 0.071106
Si Si3 0.322879 0.013919 0.815186
Si Si4 0.009769 0.133895 0.527456
Si Si5 0.192408 0.854142 0.350825
Si Si6 0.447466 0.110550 0.194815
Si Si7 0.134708 0.218728 0.932992
Si Si8 0.228591 0.281511 0.261995
O O1 0.211748 0.257894 0.515678
O O2 0.172499 0.387293 0.247017
O O3 0.079605 0.020491 0.415656
O O4 0.912481 0.501018 0.043044
O O5 0.664253 0.441882 0.356406
O O6 0.449378 0.360410 0.117364
O O7 0.500349 0.816312 0.890072
O O8 0.361173 0.741157 0.944792
O O9 0.201785 0.037302 0.768390
O O10 0.500000 0.000000 0.000000
O O11 0.925904 0.457396 0.282710
O O12 0.000000 0.000000 0.500000
O O13 0.021411 0.837419 0.201958
O O14 0.212749 0.001013 0.373687
O O15 0.206850 0.036468 0.183768
O O16 0.579694 0.820258 0.509214
O O17 0.268631 0.128938 0.031860
#
# Coordination Sequence:
#
# PCOD9002592 Si02
#       8
#     2   2   2   2   2   2   2   2
#     4  10  21  40  63  88 123 160 215 248 310 373
#     4  10  21  37  60  91 122 164 204 256 314 360
#     4  11  21  37  60  90 123 159 199 259 306 366
#     4  10  21  36  62  90 120 165 209 251 298 376
#     4  10  23  39  59  90 129 167 199 259 316 369
#     4  10  21  38  64  88 124 159 212 259 300 376
#     4  11  23  40  60  94 128 163 209 254 317 367
#     4  10  21  40  63  88 121 168 202 260 307 370
#
# _framework density 23.017893000000001
#
# number of rings (size 3 to 8) (size 9 to 14) (size 15 to 20)
#    0.000    1.750    1.250    3.750    3.500    4.500 
#    2.250    0.000    0.000    3.000    0.000    0.000 
#    0.000    0.000    0.000    0.000    0.000    0.000 
#
# Total GULP energy -89250.987517 kJ/mol
# GULP energy per Si atom -5578.186720 kJ/mol
# Density = 2.296550 g / cm^3
# Si number density = 23.017893 Si / 1000 Ang^3
#
#
#
# Elastic Constant Matrix: (Units=GPa)
#
#
# Indices 1 2 3 4 5 6 
#
# 1 49.5395 -3.6520 19.4887 7.2771 16.6631 7.5064
# 2 -3.6520 29.3525 10.7872 3.4589 7.4640 10.3719
# 3 19.4887 10.7872 156.5885 11.4879 23.8665 8.9270
# 4 7.2771 3.4589 11.4879 29.6981 1.5223 8.5207
# 5 16.6631 7.4640 23.8665 1.5223 23.8288 5.7620
# 6 7.5064 10.3719 8.9270 8.5207 5.7620 23.2088
#
#
#
# Elastic Compliance Matrix: (Units=1/GPa)
#
#
# Indices 1 2 3 4 5 6 
#
# 1 0.031242 0.013505 -0.000386 -0.005541 -0.023365 -0.008157
# 2 0.013505 0.048188 -0.000869 -0.001813 -0.018650 -0.020273
# 3 -0.000386 -0.000869 0.007749 -0.002499 -0.007112 0.000216
# 4 -0.005541 -0.001813 -0.002499 0.039496 0.007518 -0.012803
# 5 -0.023365 -0.018650 -0.007112 0.007518 0.071228 -0.001817
# 6 -0.008157 -0.020273 0.000216 -0.012803 -0.001817 0.059854
#
#
# Mechanical properties :
#
#
# Convention : Reuss Voigt Hill
#
# Bulk Modulus (GPa) = 8.95419 32.08093 20.51756
# Shear Modulus (GPa) = 18.48544 29.27091 23.87817
#
# Velocity S-wave (km/s) = 2.83696 3.56990 3.22432
# Velocity P-wave (km/s) = 3.82487 5.56416 4.77439
#
# Compressibility (1/GPa) = 0.11167959
#
# Stress axis : x y z
#
# Youngs Moduli (GPa) = 32.00795 20.75207 129.04812
#
# Poissons Ratio (x) = -0.28027 0.04982
# Poissons Ratio (y) = -0.43228 0.11217
# Poissons Ratio (z) = 0.01236 0.01804
#
# Static dielectric constant tensor:
#      x y z
#    x 1.954810 0.024790 -0.048780 
#    y 0.024790 1.891300 -0.005880 
#    z -0.048780 -0.005880 1.957490 
# 
# From -- ./inp_files/575923.got.cif
#   From: 2010.05.17/outbox.cif.g08.bks.cpg/sg2_288_cif.got.tgz:575923.got - 2010.06.03 11:33:40.
