data_PCOD9002193
_publ_section_title
;
Structure prediction by ZEFSAII (Michael W. Deem and Ramdas Pophale) SiO2 
 PCOD9002193
Probable space group: P -1
;
_chemical_formula_sum "Si O2"
_cell_formula_units_Z 16
_cell_length_a 4.814837
_cell_length_b 15.603185
_cell_length_c 14.764440
_cell_angle_alpha 129.987507
_cell_angle_beta 105.175097
_cell_angle_gamma 69.656978
_cell_volume 795.711368
_symmetry_space_group_name_H-M "P -1"
_symmetry_group_IT_number 2
_symmetry_cell_setting 'triclinic'
loop_
_space_group_symop_operation_xyz
x,y,z
-x,-y,-z
loop_
_atom_site_type_symbol
_atom_site_label
_atom_site_fract_x
_atom_site_fract_y
_atom_site_fract_z
Si Si1 0.226436 0.520675 0.612126
Si Si2 0.671104 0.890914 0.999939
Si Si3 0.713315 0.283011 0.515506
Si Si4 0.309107 0.326859 0.263199
Si Si5 0.761543 0.060703 0.850215
Si Si6 0.197086 0.911941 0.336554
Si Si7 0.795622 0.799800 0.646276
Si Si8 0.819072 0.847160 0.407698
O O1 0.425611 0.609383 0.664036
O O2 0.934587 0.268283 0.438632
O O3 0.000000 0.500000 0.500000
O O4 0.999241 0.576910 0.710249
O O5 0.548858 0.907189 0.102680
O O6 0.012385 0.893884 0.035947
O O7 0.631191 0.772882 0.873626
O O8 0.500000 0.000000 0.000000
O O9 0.466197 0.402869 0.575259
O O10 0.513120 0.189407 0.426899
O O11 0.936969 0.257783 0.601409
O O12 0.257543 0.263711 0.309313
O O13 0.773845 0.103700 0.778404
O O14 0.855087 0.922111 0.758370
O O15 0.487734 0.835867 0.359670
O O16 0.918833 0.883157 0.342694
O O17 0.187756 0.044634 0.452203
#
# Coordination Sequence:
#
# PCOD9002193 Si02
#       8
#     2   2   2   2   2   2   2   2
#     4  12  26  42  62  89 123 168 211 249 305 369
#     4  12  26  40  62  88 123 166 214 250 298 359
#     4  12  24  38  59  93 124 170 201 246 309 373
#     4  12  26  42  59  88 125 166 210 260 290 352
#     4  12  24  40  60  92 123 172 203 244 307 366
#     4  10  21  37  60  87 124 160 198 251 305 373
#     4  12  24  35  62  88 130 162 209 245 293 365
#     4  10  21  36  58  90 124 156 199 251 310 367
#
# _framework density 20.107794999999999
#
# number of rings (size 3 to 8) (size 9 to 14) (size 15 to 20)
#    0.000    0.500    3.750    5.250    5.250    0.000 
#    0.000    0.000    0.000    0.000    0.000   17.500 
#    0.000    0.000    0.000    0.000    0.000    0.000 
#
# Total GULP energy -89488.638120 kJ/mol
# GULP energy per Si atom -5593.039882 kJ/mol
# Density = 2.006203 g / cm^3
# Si number density = 20.107795 Si / 1000 Ang^3
#
#
#
# Elastic Constant Matrix: (Units=GPa)
#
#
# Indices 1 2 3 4 5 6 
#
# 1 112.3612 22.0865 22.9779 4.0021 0.6437 -4.5787
# 2 22.0865 68.1589 40.4331 0.2337 -0.1037 -10.1222
# 3 22.9779 40.4331 77.8808 9.8955 -8.5305 -2.2337
# 4 4.0021 0.2337 9.8955 26.3880 5.8931 -1.3321
# 5 0.6437 -0.1037 -8.5305 5.8931 42.3040 -2.3595
# 6 -4.5787 -10.1222 -2.2337 -1.3321 -2.3595 39.9426
#
#
#
# Elastic Compliance Matrix: (Units=1/GPa)
#
#
# Indices 1 2 3 4 5 6 
#
# 1 0.009703 -0.002040 -0.001745 -0.000691 -0.000383 0.000452
# 2 -0.002040 0.023457 -0.012477 0.005691 -0.002940 0.005029
# 3 -0.001745 -0.012477 0.021517 -0.009024 0.005473 -0.002136
# 4 -0.000691 0.005691 -0.009024 0.043148 -0.007703 0.001842
# 5 -0.000383 -0.002940 0.005473 -0.007703 0.025858 0.000788
# 6 0.000452 0.005029 -0.002136 0.001842 0.000788 0.026351
#
#
# Mechanical properties :
#
#
# Convention : Reuss Voigt Hill
#
# Bulk Modulus (GPa) = 45.13989 47.71063 46.42526
# Shear Modulus (GPa) = 26.32379 33.25380 29.78880
#
# Velocity S-wave (km/s) = 3.62212 4.07108 3.85314
# Velocity P-wave (km/s) = 6.32382 6.77327 6.55240
#
# Compressibility (1/GPa) = 0.02215336
#
# Stress axis : x y z
#
# Youngs Moduli (GPa) = 103.06157 42.63066 46.47412
#
# Poissons Ratio (x) = 0.08698 0.08108
# Poissons Ratio (y) = 0.21027 0.57986
# Poissons Ratio (z) = 0.17981 0.53191
#
# Static dielectric constant tensor:
#      x y z
#    x 1.726070 -0.012950 -0.006390 
#    y -0.012950 1.762220 -0.000050 
#    z -0.006390 -0.000050 1.705510 
# 
# From -- ./inp_files/483665.got.cif
#   From: 2010.05.17/outbox.cif.g08.bks.cpg/sg2_242_cif.got.tgz:483665.got - 2010.06.03 11:33:40.
