data_PCOD9002255
_publ_section_title
;
Structure prediction by ZEFSAII (Michael W. Deem and Ramdas Pophale) SiO2 
 PCOD9002255
Probable space group: P -1
;
_chemical_formula_sum "Si O2"
_cell_formula_units_Z 16
_cell_length_a 9.392400
_cell_length_b 8.870850
_cell_length_c 17.249593
_cell_angle_alpha 54.516685
_cell_angle_beta 122.154002
_cell_angle_gamma 135.619449
_cell_volume 800.972852
_symmetry_space_group_name_H-M "P -1"
_symmetry_group_IT_number 2
_symmetry_cell_setting 'triclinic'
loop_
_space_group_symop_operation_xyz
x,y,z
-x,-y,-z
loop_
_atom_site_type_symbol
_atom_site_label
_atom_site_fract_x
_atom_site_fract_y
_atom_site_fract_z
Si Si1 0.881597 0.575442 0.276614
Si Si2 0.517984 0.541501 0.402278
Si Si3 0.542440 0.210617 0.399227
Si Si4 0.309261 0.779323 0.790537
Si Si5 0.068199 0.974672 0.611383
Si Si6 0.883806 0.934999 0.729421
Si Si7 0.993501 0.580919 0.889329
Si Si8 0.261365 0.721458 0.235854
O O1 0.761326 0.376143 0.367141
O O2 0.727159 0.439500 0.198596
O O3 0.103257 0.664056 0.276721
O O4 0.940107 0.814680 0.258052
O O5 0.500000 0.500000 0.500000
O O6 0.537655 0.368493 0.413413
O O7 0.727055 0.786127 0.375803
O O8 0.338143 0.562413 0.318529
O O9 0.347086 0.127583 0.310248
O O10 0.500000 0.000000 0.500000
O O11 0.216223 0.723423 0.866912
O O12 0.149163 0.816233 0.687941
O O13 0.539748 0.013285 0.784542
O O14 0.000000 0.000000 0.500000
O O15 0.910735 0.933128 0.644804
O O16 0.913364 0.742145 0.823189
O O17 0.852296 0.365668 0.854194
O O18 0.000000 0.500000 0.000000
#
# Coordination Sequence:
#
# PCOD9002255 Si02
#       8
#     2   2   2   2   2   2   2   2
#     4  11  24  42  61  92 136 172 216 268 331 390
#     4  11  23  38  59  88 127 173 221 260 313 385
#     4  12  27  39  58  96 132 177 222 260 329 389
#     4   9  22  40  64  94 128 173 216 266 332 392
#     4  10  21  36  59  86 124 173 222 262 312 380
#     4  11  23  41  63  92 134 170 212 280 326 383
#     4  10  22  43  73 102 126 167 225 278 332 393
#     4  10  22  45  66  92 131 174 220 275 321 390
#
# _framework density 19.975708000000001
#
# number of rings (size 3 to 8) (size 9 to 14) (size 15 to 20)
#    0.000    1.500    2.500    1.500   10.500    1.000 
#    0.000    3.125    0.000    4.500    0.000    0.000 
#    0.000    0.000    0.000    0.000    0.000    0.000 
#
# Total GULP energy -89176.401537 kJ/mol
# GULP energy per Si atom -5573.525096 kJ/mol
# Density = 1.993024 g / cm^3
# Si number density = 19.975708 Si / 1000 Ang^3
#
#
#
# Elastic Constant Matrix: (Units=GPa)
#
#
# Indices 1 2 3 4 5 6 
#
# 1 119.7954 62.9872 56.6274 0.6019 -26.1997 6.9069
# 2 62.9872 143.2449 25.5176 -10.7326 -8.2492 -5.5279
# 3 56.6274 25.5176 113.3865 0.3993 -26.2122 -5.3685
# 4 0.6019 -10.7326 0.3993 20.8112 -1.5587 -3.7738
# 5 -26.1997 -8.2492 -26.2122 -1.5587 22.1940 -2.6363
# 6 6.9069 -5.5279 -5.3685 -3.7738 -2.6363 44.9095
#
#
#
# Elastic Compliance Matrix: (Units=1/GPa)
#
#
# Indices 1 2 3 4 5 6 
#
# 1 0.016261 -0.006118 -0.004303 -0.003318 0.011204 -0.003389
# 2 -0.006118 0.009988 0.000354 0.005603 -0.002395 0.002543
# 3 -0.004303 0.000354 0.013757 0.001500 0.011781 0.003168
# 4 -0.003318 0.005603 0.001500 0.052428 0.004337 0.006039
# 5 0.011204 -0.002395 0.011781 0.004337 0.072086 0.003986
# 6 -0.003389 0.002543 0.003168 0.006039 0.003986 0.024221
#
#
# Mechanical properties :
#
#
# Convention : Reuss Voigt Hill
#
# Bulk Modulus (GPa) = 50.31889 74.07682 62.19785
# Shear Modulus (GPa) = 23.20224 33.00257 28.10241
#
# Velocity S-wave (km/s) = 3.41181 4.06906 3.75484
# Velocity P-wave (km/s) = 6.38477 7.69677 7.07126
#
# Compressibility (1/GPa) = 0.01987325
#
# Stress axis : x y z
#
# Youngs Moduli (GPa) = 61.49844 100.12047 72.69161
#
# Poissons Ratio (x) = 0.61251 0.31277
# Poissons Ratio (y) = 0.37623 -0.02577
# Poissons Ratio (z) = 0.26461 -0.03549
#
# Static dielectric constant tensor:
#      x y z
#    x 1.777700 0.040580 0.024930 
#    y 0.040580 1.710240 0.042550 
#    z 0.024930 0.042550 1.695910 
# 
# From -- ./inp_files/328032.got.cif
#   From: 2010.05.17/outbox.cif.g08.bks.cpg/sg2_165_cif.got.tgz:328032.got - 2010.06.03 11:33:40.
