data_PCOD9002398
_publ_section_title
;
Structure prediction by ZEFSAII (Michael W. Deem and Ramdas Pophale) SiO2 
 PCOD9002398
Probable space group: P -1
;
_chemical_formula_sum "Si O2"
_cell_formula_units_Z 16
_cell_length_a 15.581777
_cell_length_b 7.848278
_cell_length_c 9.269256
_cell_angle_alpha 46.340586
_cell_angle_beta 118.021780
_cell_angle_gamma 95.644275
_cell_volume 677.090033
_symmetry_space_group_name_H-M "P -1"
_symmetry_group_IT_number 2
_symmetry_cell_setting 'triclinic'
loop_
_space_group_symop_operation_xyz
x,y,z
-x,-y,-z
loop_
_atom_site_type_symbol
_atom_site_label
_atom_site_fract_x
_atom_site_fract_y
_atom_site_fract_z
Si Si1 0.050781 0.714814 0.157539
Si Si2 0.570731 0.720553 0.002392
Si Si3 0.422262 0.772883 0.597242
Si Si4 0.473940 0.252043 0.599726
Si Si5 0.736556 0.696066 0.915328
Si Si6 0.072007 0.130053 0.315070
Si Si7 0.047999 0.620100 0.637885
Si Si8 0.762293 0.614224 0.665823
O O1 0.983657 0.718830 0.957923
O O2 0.036792 0.514863 0.378953
O O3 0.167964 0.609840 0.251014
O O4 0.000000 0.000000 0.000000
O O5 0.465775 0.770800 0.794722
O O6 0.661586 0.635796 0.005500
O O7 0.555415 0.999639 0.881824
O O8 0.587811 0.500291 0.258046
O O9 0.505565 0.785602 0.535869
O O10 0.319352 0.010478 0.343478
O O11 0.500000 0.500000 0.500000
O O12 0.357504 0.285416 0.530499
O O13 0.757346 0.540283 0.873399
O O14 0.847157 0.619495 0.122527
O O15 0.178005 0.184015 0.399128
O O16 0.998666 0.240467 0.329266
O O17 0.078846 0.843011 0.460141
#
# Coordination Sequence:
#
# PCOD9002398 Si02
#       8
#     2   2   2   2   2   2   2   2
#     4  11  23  39  61  93 135 162 193 255 319 373
#     4  10  21  36  60  90 116 156 208 262 304 357
#     4  10  21  37  60  88 119 155 208 263 303 358
#     4  11  23  41  60  89 133 167 202 253 315 377
#     4  11  18  34  63  88 115 153 212 257 298 357
#     4  10  21  39  63  91 120 155 216 260 294 369
#     4  10  21  37  63  92 119 159 210 254 301 364
#     4  11  20  41  63  86 117 170 214 248 304 371
#
# _framework density 23.630534000000001
#
# number of rings (size 3 to 8) (size 9 to 14) (size 15 to 20)
#    0.000    1.500    5.000    1.500    1.750    3.000 
#    0.000    0.000    0.000    0.000    0.000    0.000 
#    0.000    0.000    0.000    0.000    0.000    0.000 
#
# Total GULP energy -89252.942730 kJ/mol
# GULP energy per Si atom -5578.308921 kJ/mol
# Density = 2.357675 g / cm^3
# Si number density = 23.630534 Si / 1000 Ang^3
#
#
#
# Elastic Constant Matrix: (Units=GPa)
#
#
# Indices 1 2 3 4 5 6 
#
# 1 148.3625 18.9133 65.7547 -19.8727 12.7217 -5.5645
# 2 18.9133 73.3110 9.5658 -29.6562 5.2773 2.1748
# 3 65.7547 9.5658 96.4602 -32.8917 -1.8625 7.3645
# 4 -19.8727 -29.6562 -32.8917 41.6009 2.0218 0.5072
# 5 12.7217 5.2773 -1.8625 2.0218 46.1495 -4.7307
# 6 -5.5645 2.1748 7.3645 0.5072 -4.7307 24.5378
#
#
#
# Elastic Compliance Matrix: (Units=1/GPa)
#
#
# Indices 1 2 3 4 5 6 
#
# 1 0.011003 -0.003365 -0.009056 -0.004254 -0.002299 0.005156
# 2 -0.003365 0.022083 0.007380 0.020178 -0.002787 -0.005890
# 3 -0.009056 0.007380 0.023176 0.019345 0.000723 -0.009924
# 4 -0.004254 0.020178 0.019345 0.051991 -0.003692 -0.010346
# 5 -0.002299 -0.002787 0.000723 -0.003692 0.023229 0.004063
# 6 0.005156 -0.005890 -0.009924 -0.010346 0.004063 0.046421
#
#
# Mechanical properties :
#
#
# Convention : Reuss Voigt Hill
#
# Bulk Modulus (GPa) = 21.65348 56.28903 38.97125
# Shear Modulus (GPa) = 24.58468 37.38431 30.98450
#
# Velocity S-wave (km/s) = 3.22899 3.98179 3.62499
# Velocity P-wave (km/s) = 4.80469 6.70908 5.83510
#
# Compressibility (1/GPa) = 0.04618196
#
# Stress axis : x y z
#
# Youngs Moduli (GPa) = 90.88049 45.28271 43.14764
#
# Poissons Ratio (x) = 0.15239 0.39073
# Poissons Ratio (y) = 0.30584 -0.31844
# Poissons Ratio (z) = 0.82297 -0.33420
#
# Static dielectric constant tensor:
#      x y z
#    x 1.937890 0.021860 -0.030150 
#    y 0.021860 2.059300 -0.025940 
#    z -0.030150 -0.025940 1.914880 
# 
# From -- ./inp_files/446680.got.cif
#   From: 2010.05.17/outbox.cif.g08.bks.cpg/sg2_224_cif.got.tgz:446680.got - 2010.06.03 11:33:40.
