data_PCOD9002004
_publ_section_title
;
Structure prediction by ZEFSAII (Michael W. Deem and Ramdas Pophale) SiO2 
 PCOD9002004
Probable space group: P -1
;
_chemical_formula_sum "Si O2"
_cell_formula_units_Z 16
_cell_length_a 9.370669
_cell_length_b 17.242378
_cell_length_c 11.430718
_cell_angle_alpha 139.092233
_cell_angle_beta 36.625583
_cell_angle_gamma 143.557035
_cell_volume 622.087209
_symmetry_space_group_name_H-M "P -1"
_symmetry_group_IT_number 2
_symmetry_cell_setting 'triclinic'
loop_
_space_group_symop_operation_xyz
x,y,z
-x,-y,-z
loop_
_atom_site_type_symbol
_atom_site_label
_atom_site_fract_x
_atom_site_fract_y
_atom_site_fract_z
Si Si1 0.423632 0.556120 0.228563
Si Si2 0.514305 0.001786 0.665196
Si Si3 0.027369 0.732372 0.781747
Si Si4 0.707281 0.829786 0.259112
Si Si5 0.336062 0.449435 0.710017
Si Si6 0.595853 0.284575 0.277144
Si Si7 0.301005 0.709235 0.051728
Si Si8 0.747689 0.001575 0.765037
O O1 0.436785 0.695288 0.337158
O O2 0.660818 0.604953 0.224467
O O3 0.159859 0.426816 0.314014
O O4 0.500000 0.500000 0.000000
O O5 0.220296 0.865046 0.727151
O O6 0.652117 0.954894 0.420922
O O7 0.687734 0.012850 0.682915
O O8 0.535933 0.148463 0.823265
O O9 0.204142 0.716620 0.754669
O O10 0.813877 0.775726 0.023431
O O11 0.961879 0.887066 0.247914
O O12 0.539993 0.411625 0.463287
O O13 0.420018 0.606212 0.858140
O O14 0.018123 0.371831 0.786934
O O15 0.692108 0.268210 0.067290
O O16 0.302904 0.149454 0.345438
O O17 0.500000 0.000000 0.000000
#
# Coordination Sequence:
#
# PCOD9002004 Si02
#       8
#     2   2   2   2   2   2   2   2
#     4  10  21  38  60  81 113 147 186 237 281 323
#     4  11  20  32  56  78 112 146 182 225 280 327
#     4  10  21  36  56  84 113 140 185 237 277 323
#     4  11  19  32  53  83 107 144 179 226 285 328
#     4  11  24  37  57  83 110 152 194 220 277 340
#     4  11  20  36  59  84 116 147 178 229 285 333
#     4  11  22  39  55  81 118 149 183 232 272 332
#     4  11  17  30  52  81 112 136 174 224 281 325
#
# _framework density 25.719866
#
# number of rings (size 3 to 8) (size 9 to 14) (size 15 to 20)
#    0.000    1.250    3.750    5.250    0.000    2.000 
#    0.000    0.625    0.000    3.000    0.000    0.000 
#    0.000    0.000    0.000    0.000    0.000    0.000 
#
# Total GULP energy -89398.232396 kJ/mol
# GULP energy per Si atom -5587.389525 kJ/mol
# Density = 2.566133 g / cm^3
# Si number density = 25.719866 Si / 1000 Ang^3
#
#
#
# Elastic Constant Matrix: (Units=GPa)
#
#
# Indices 1 2 3 4 5 6 
#
# 1 32.0454 1.2383 11.5248 4.7601 -7.8138 8.2493
# 2 1.2383 154.2093 55.9246 27.5760 -20.1344 20.6169
# 3 11.5248 55.9246 181.9040 34.7892 -10.2806 0.1837
# 4 4.7601 27.5760 34.7892 52.9301 -9.5496 -3.9785
# 5 -7.8138 -20.1344 -10.2806 -9.5496 33.5166 9.7128
# 6 8.2493 20.6169 0.1837 -3.9785 9.7128 25.8746
#
#
#
# Elastic Compliance Matrix: (Units=1/GPa)
#
#
# Indices 1 2 3 4 5 6 
#
# 1 0.046325 0.008833 -0.003428 -0.004753 0.022693 -0.031032
# 2 0.008833 0.012231 -0.002744 -0.004457 0.012487 -0.017915
# 3 -0.003428 -0.002744 0.007002 -0.002990 -0.002193 0.003593
# 4 -0.004753 -0.004457 -0.002990 0.024209 -0.000402 0.008961
# 5 0.022693 0.012487 -0.002193 -0.000402 0.052551 -0.036957
# 6 -0.031032 -0.017915 0.003593 0.008961 -0.036957 0.078042
#
#
# Mechanical properties :
#
#
# Convention : Reuss Voigt Hill
#
# Bulk Modulus (GPa) = 14.10799 56.17045 35.13922
# Shear Modulus (GPa) = 20.94988 42.42900 31.68944
#
# Velocity S-wave (km/s) = 2.85711 4.06601 3.51394
# Velocity P-wave (km/s) = 4.04738 6.62797 5.49141
#
# Compressibility (1/GPa) = 0.07088183
#
# Stress axis : x y z
#
# Youngs Moduli (GPa) = 21.58653 81.75703 142.80671
#
# Poissons Ratio (x) = -0.72215 0.48949
# Poissons Ratio (y) = -0.19067 0.39183
# Poissons Ratio (z) = 0.07399 0.22432
#
# Static dielectric constant tensor:
#      x y z
#    x 2.041530 -0.035980 -0.011020 
#    y -0.035980 2.079080 0.023680 
#    z -0.011020 0.023680 2.091820 
# 
# From -- ./inp_files/438633.got.cif
#   From: 2010.05.17/outbox.cif.g08.bks.cpg/sg2_220_cif.got.tgz:438633.got - 2010.06.03 11:33:40.
