data_PCOD9002453
_publ_section_title
;
Structure prediction by ZEFSAII (Michael W. Deem and Ramdas Pophale) SiO2 
 PCOD9002453
Probable space group: P -1
;
_chemical_formula_sum "Si O2"
_cell_formula_units_Z 15
_cell_length_a 11.575170
_cell_length_b 4.935055
_cell_length_c 30.687023
_cell_angle_alpha 58.641539
_cell_angle_beta 155.491003
_cell_angle_gamma 125.706533
_cell_volume 590.198948
_symmetry_space_group_name_H-M "P -1"
_symmetry_group_IT_number 2
_symmetry_cell_setting 'triclinic'
loop_
_space_group_symop_operation_xyz
x,y,z
-x,-y,-z
loop_
_atom_site_type_symbol
_atom_site_label
_atom_site_fract_x
_atom_site_fract_y
_atom_site_fract_z
Si Si1 0.913443 0.921488 0.184897
Si Si2 0.007032 0.287312 0.931877
Si Si3 0.392041 0.879420 0.065773
Si Si4 0.070251 0.419026 0.338201
Si Si5 0.425008 0.367491 0.382872
Si Si6 0.474982 0.688132 0.790570
Si Si7 0.714984 0.111851 0.760889
Si Si8 0.500000 0.000000 0.500000
O O1 0.623622 0.988704 0.096665
O O2 0.905363 0.562804 0.232035
O O3 0.006219 0.917160 0.167635
O O4 0.189794 0.160469 0.285617
O O5 0.108114 0.590991 0.974059
O O6 0.284062 0.175546 0.021430
O O7 0.854640 0.354640 0.829241
O O8 0.755943 0.951723 0.888378
O O9 0.531139 0.681958 0.165412
O O10 0.270950 0.268235 0.388120
O O11 0.810874 0.232030 0.296750
O O12 0.287379 0.706006 0.416947
O O13 0.464787 0.736590 0.348189
O O14 0.677592 0.224343 0.495802
O O15 0.530866 0.780124 0.751127
#
# Coordination Sequence:
#
# PCOD9002453 Si02
#       8
#     2   2   2   2   2   2   2   1
#     4  10  21  36  61  80 122 156 196 253 296 353
#     4  10  24  38  59  86 124 164 208 251 285 354
#     4  11  23  40  62  87 116 168 222 241 279 352
#     4   8  18  38  58  89 105 148 199 241 301 354
#     4   9  19  39  58  88 111 152 191 250 302 355
#     4   9  20  39  59  82 124 157 194 249 302 347
#     4   9  22  36  55  85 124 156 187 249 309 346
#     4   8  18  36  68  84 108 142 204 250 286 376
#
# _framework density 25.415161999999999
#
# number of rings (size 3 to 8) (size 9 to 14) (size 15 to 20)
#    1.600    1.067    0.000    0.800    7.467    1.600 
#    4.800    0.667    0.000    0.800    0.000    0.000 
#    0.000    0.000    0.000    0.000    0.000    0.000 
#
# Total GULP energy -83556.388688 kJ/mol
# GULP energy per Si atom -5570.425913 kJ/mol
# Density = 2.535732 g / cm^3
# Si number density = 25.415162 Si / 1000 Ang^3
#
#
#
# Elastic Constant Matrix: (Units=GPa)
#
#
# Indices 1 2 3 4 5 6 
#
# 1 134.5067 29.0491 26.4133 -5.3601 0.3863 20.4788
# 2 29.0491 66.2090 24.8568 -24.4578 -12.0476 8.5118
# 3 26.4133 24.8568 63.2171 -23.0484 -14.9073 -0.6662
# 4 -5.3601 -24.4578 -23.0484 50.5236 2.2433 -20.6679
# 5 0.3863 -12.0476 -14.9073 2.2433 39.9582 -6.6912
# 6 20.4788 8.5118 -0.6662 -20.6679 -6.6912 45.6212
#
#
#
# Elastic Compliance Matrix: (Units=1/GPa)
#
#
# Indices 1 2 3 4 5 6 
#
# 1 0.010661 -0.004770 -0.006408 -0.007130 -0.004860 -0.007932
# 2 -0.004770 0.022416 -0.001230 0.011098 0.006377 0.003904
# 3 -0.006408 -0.001230 0.027493 0.015804 0.011120 0.012298
# 4 -0.007130 0.011098 0.015804 0.039697 0.010582 0.020897
# 5 -0.004860 0.006377 0.011120 0.010582 0.032341 0.010692
# 6 -0.007932 0.003904 0.012298 0.020897 0.010692 0.035967
#
#
# Mechanical properties :
#
#
# Convention : Reuss Voigt Hill
#
# Bulk Modulus (GPa) = 27.96838 47.17456 37.57147
# Shear Modulus (GPa) = 24.35354 39.46149 31.90752
#
# Velocity S-wave (km/s) = 3.09889 3.94467 3.54708
# Velocity P-wave (km/s) = 4.88187 6.27289 5.62058
#
# Compressibility (1/GPa) = 0.03575466
#
# Stress axis : x y z
#
# Youngs Moduli (GPa) = 93.80336 44.61007 36.37240
#
# Poissons Ratio (x) = 0.21280 0.23307
# Poissons Ratio (y) = 0.44746 0.04473
# Poissons Ratio (z) = 0.60108 0.05486
#
# Static dielectric constant tensor:
#      x y z
#    x 2.064030 0.018620 0.013660 
#    y 0.018620 2.173640 -0.103400 
#    z 0.013660 -0.103400 2.000320 
# 
# From -- ./inp_files/622832.got.cif
#   From: 2010.05.17/outbox.cif.g08.bks.cpg/sg2_312_cif.got.tgz:622832.got - 2010.06.03 11:33:40.
