data_PCOD9002161
_publ_section_title
;
Structure prediction by ZEFSAII (Michael W. Deem and Ramdas Pophale) SiO2 
 PCOD9002161
Probable space group: P -1
;
_chemical_formula_sum "Si O2"
_cell_formula_units_Z 14
_cell_length_a 11.266459
_cell_length_b 14.981060
_cell_length_c 8.008462
_cell_angle_alpha 137.829056
_cell_angle_beta 142.666501
_cell_angle_gamma 48.631435
_cell_volume 541.751441
_symmetry_space_group_name_H-M "P -1"
_symmetry_group_IT_number 2
_symmetry_cell_setting 'triclinic'
loop_
_space_group_symop_operation_xyz
x,y,z
-x,-y,-z
loop_
_atom_site_type_symbol
_atom_site_label
_atom_site_fract_x
_atom_site_fract_y
_atom_site_fract_z
Si Si1 0.476662 0.819157 0.579646
Si Si2 0.915043 0.904301 0.900413
Si Si3 0.240479 0.445817 0.365728
Si Si4 0.304205 0.929114 0.863318
Si Si5 0.761733 0.499862 0.927751
Si Si6 0.841834 0.394677 0.197446
Si Si7 0.542208 0.781426 0.221864
O O1 0.657536 0.707308 0.697270
O O2 0.449212 0.774962 0.294894
O O3 0.549410 0.962237 0.836700
O O4 0.315812 0.853516 0.595756
O O5 0.698752 0.883681 0.563602
O O6 0.037165 0.753936 0.845716
O O7 0.894050 0.981067 0.160793
O O8 0.000000 0.000000 0.000000
O O9 0.281999 0.542816 0.695648
O O10 0.001184 0.460827 0.117270
O O11 0.308567 0.497380 0.337511
O O12 0.383593 0.829176 0.966241
O O13 0.720201 0.404760 0.902355
O O14 0.679381 0.646198 0.117356
O O15 0.000000 0.500000 0.500000
#
# Coordination Sequence:
#
# PCOD9002161 Si02
#       7
#     2   2   2   2   2   2   2
#     4  10  18  30  54  84 112 140 187 243 272 315
#     4  11  22  37  58  84 120 153 179 229 293 338
#     4  10  17  27  49  85 107 132 180 244 274 306
#     4  10  21  34  54  84 114 149 191 230 277 333
#     4  10  17  27  52  87 107 131 187 243 269 309
#     4  10  17  34  55  80 108 143 191 230 266 324
#     4  11  18  35  57  87 112 145 191 236 275 329
#
# _framework density 25.842110000000002
#
# number of rings (size 3 to 8) (size 9 to 14) (size 15 to 20)
#    0.000    1.714    5.714    4.286    0.000    0.000 
#    0.000    0.000    0.000   23.143    0.000    0.000 
#    0.000    0.000    0.000    0.000    0.000    0.000 
#
# Total GULP energy -78312.639234 kJ/mol
# GULP energy per Si atom -5593.759945 kJ/mol
# Density = 2.578329 g / cm^3
# Si number density = 25.842110 Si / 1000 Ang^3
#
#
#
# Elastic Constant Matrix: (Units=GPa)
#
#
# Indices 1 2 3 4 5 6 
#
# 1 178.1358 59.0270 67.6060 -8.6789 -64.9306 4.4228
# 2 59.0270 173.9546 37.4678 8.3746 -29.3203 7.4748
# 3 67.6060 37.4678 106.0358 18.8580 -38.1383 13.5331
# 4 -8.6789 8.3746 18.8580 43.2362 -0.6360 -17.9416
# 5 -64.9306 -29.3203 -38.1383 -0.6360 60.3627 -15.8027
# 6 4.4228 7.4748 13.5331 -17.9416 -15.8027 50.4529
#
#
#
# Elastic Compliance Matrix: (Units=1/GPa)
#
#
# Indices 1 2 3 4 5 6 
#
# 1 0.012814 -0.001927 -0.006009 0.008786 0.011072 0.007366
# 2 -0.001927 0.006744 -0.000425 -0.002018 0.000586 -0.001250
# 3 -0.006009 -0.000425 0.017221 -0.011733 0.002112 -0.007540
# 4 0.008786 -0.002018 -0.011733 0.038020 0.006207 0.018140
# 5 0.011072 0.000586 0.002112 0.006207 0.033021 0.010926
# 6 0.007366 -0.001250 -0.007540 0.018140 0.010926 0.031256
#
#
# Mechanical properties :
#
#
# Convention : Reuss Voigt Hill
#
# Bulk Modulus (GPa) = 49.86199 87.36976 68.61588
# Shear Modulus (GPa) = 30.77242 50.41207 40.59224
#
# Velocity S-wave (km/s) = 3.45452 4.42155 3.96761
# Velocity P-wave (km/s) = 5.93703 7.74269 6.89919
#
# Compressibility (1/GPa) = 0.02005536
#
# Stress axis : x y z
#
# Youngs Moduli (GPa) = 78.04174 148.28753 58.06764
#
# Poissons Ratio (x) = 0.28575 0.34895
# Poissons Ratio (y) = 0.15039 0.02469
# Poissons Ratio (z) = 0.46898 0.06306
#
# Static dielectric constant tensor:
#      x y z
#    x 2.110380 0.022450 0.077550 
#    y 0.022450 2.026360 -0.028000 
#    z 0.077550 -0.028000 2.143340 
# 
# From -- ./inp_files/266035.got.cif
#   From: 2010.05.17/outbox.cif.g08.bks.cpg/sg2_134_cif.got.tgz:266035.got - 2010.06.03 11:33:40.
