data_PCOD9002732
_publ_section_title
;
Structure prediction by ZEFSAII (Michael W. Deem and Ramdas Pophale) SiO2 
 PCOD9002732
Probable space group: P -1
;
_chemical_formula_sum "Si O2"
_cell_formula_units_Z 14
_cell_length_a 9.292400
_cell_length_b 12.848026
_cell_length_c 13.534091
_cell_angle_alpha 33.640650
_cell_angle_beta 55.338707
_cell_angle_gamma 43.232570
_cell_volume 610.077925
_symmetry_space_group_name_H-M "P -1"
_symmetry_group_IT_number 2
_symmetry_cell_setting 'triclinic'
loop_
_space_group_symop_operation_xyz
x,y,z
-x,-y,-z
loop_
_atom_site_type_symbol
_atom_site_label
_atom_site_fract_x
_atom_site_fract_y
_atom_site_fract_z
Si Si1 0.753128 0.114270 0.472364
Si Si2 0.353607 0.218089 0.130321
Si Si3 0.735081 0.789926 0.047235
Si Si4 0.134078 0.115408 0.582037
Si Si5 0.302771 0.601193 0.564761
Si Si6 0.211030 0.876656 0.948821
Si Si7 0.825912 0.485585 0.837658
O O1 0.646776 0.345567 0.389663
O O2 0.661219 0.980018 0.661033
O O3 0.731119 0.093474 0.381564
O O4 0.000000 0.000000 0.500000
O O5 0.585371 0.146269 0.064617
O O6 0.267709 0.401904 0.107092
O O7 0.229921 0.265050 0.039288
O O8 0.751463 0.578472 0.256261
O O9 0.945468 0.751550 0.041420
O O10 0.500000 0.000000 0.000000
O O11 0.170147 0.316618 0.381535
O O12 0.897712 0.200596 0.573074
O O13 0.174738 0.027439 0.746230
O O14 0.500000 0.500000 0.500000
O O15 0.279874 0.622808 0.093107
O O16 0.000000 0.000000 0.000000
#
# Coordination Sequence:
#
# PCOD9002732 Si02
#       7
#     2   2   2   2   2   2   2
#     4   9  20  40  67  95 128 169 220 280 337 389
#     4  11  24  43  66 104 133 175 231 274 340 412
#     4  11  23  39  66  99 136 171 225 287 335 400
#     4   9  23  44  65  94 134 175 230 277 330 411
#     4  10  21  36  64 101 128 174 219 276 343 390
#     4  12  27  44  68  97 143 186 222 277 346 407
#     4  10  24  45  69  95 132 180 230 283 340 396
#
# _framework density 22.947887999999999
#
# number of rings (size 3 to 8) (size 9 to 14) (size 15 to 20)
#    0.000    1.714    0.000    3.429   10.000    4.000 
#    2.571    0.000    0.000    0.000    0.000    0.000 
#    0.000    0.000    0.000    0.000    0.000    0.000 
#
# Total GULP energy -78088.235534 kJ/mol
# GULP energy per Si atom -5577.731110 kJ/mol
# Density = 2.289566 g / cm^3
# Si number density = 22.947888 Si / 1000 Ang^3
#
#
#
# Elastic Constant Matrix: (Units=GPa)
#
#
# Indices 1 2 3 4 5 6 
#
# 1 76.7928 9.7953 20.2247 -2.2337 -15.2059 8.1560
# 2 9.7953 72.4434 14.7642 6.4619 -1.6318 -8.1839
# 3 20.2247 14.7642 72.0627 14.1429 8.0634 -1.3069
# 4 -2.2337 6.4619 14.1429 35.3650 3.7534 -1.8917
# 5 -15.2059 -1.6318 8.0634 3.7534 33.1774 7.3275
# 6 8.1560 -8.1839 -1.3069 -1.8917 7.3275 18.5422
#
#
#
# Elastic Compliance Matrix: (Units=1/GPa)
#
#
# Indices 1 2 3 4 5 6 
#
# 1 0.019800 -0.002871 -0.007275 0.002366 0.013912 -0.015746
# 2 -0.002871 0.015619 -0.001699 -0.001701 -0.001840 0.008590
# 3 -0.007275 -0.001699 0.018595 -0.006316 -0.008668 0.006542
# 4 0.002366 -0.001701 -0.006316 0.031488 -0.001361 0.001513
# 5 0.013912 -0.001840 -0.008668 -0.001361 0.044245 -0.025166
# 6 -0.015746 0.008590 0.006542 0.001513 -0.025166 0.075209
#
#
# Mechanical properties :
#
#
# Convention : Reuss Voigt Hill
#
# Bulk Modulus (GPa) = 32.97753 34.54082 33.75918
# Shear Modulus (GPa) = 20.94207 29.18456 25.06332
#
# Velocity S-wave (km/s) = 3.02419 3.57007 3.30841
# Velocity P-wave (km/s) = 5.15714 5.66378 5.41639
#
# Compressibility (1/GPa) = 0.03032368
#
# Stress axis : x y z
#
# Youngs Moduli (GPa) = 50.50471 64.02445 53.77886
#
# Poissons Ratio (x) = 0.18381 0.39126
# Poissons Ratio (y) = 0.14500 0.09136
# Poissons Ratio (z) = 0.36744 0.10876
#
# Static dielectric constant tensor:
#      x y z
#    x 1.967610 -0.058720 0.064850 
#    y -0.058720 1.923300 -0.043150 
#    z 0.064850 -0.043150 1.734740 
# 
# From -- ./inp_files/174487.got.cif
#   From: 2010.05.17/outbox.cif.g08.bks.cpg/sg2_88_cif.got.tgz:174487.got - 2010.06.03 11:33:40.
