data_PCOD9002012
_publ_section_title
;
Structure prediction by ZEFSAII (Michael W. Deem and Ramdas Pophale) SiO2 
 PCOD9002012
Probable space group: P -1
;
_chemical_formula_sum "Si O2"
_cell_formula_units_Z 14
_cell_length_a 6.753918
_cell_length_b 4.836075
_cell_length_c 17.214786
_cell_angle_alpha 82.761734
_cell_angle_beta 93.962868
_cell_angle_gamma 103.884493
_cell_volume 541.056886
_symmetry_space_group_name_H-M "P -1"
_symmetry_group_IT_number 2
_symmetry_cell_setting 'triclinic'
loop_
_space_group_symop_operation_xyz
x,y,z
-x,-y,-z
loop_
_atom_site_type_symbol
_atom_site_label
_atom_site_fract_x
_atom_site_fract_y
_atom_site_fract_z
Si Si1 0.783741 0.975697 0.730794
Si Si2 0.500000 0.500000 0.000000
Si Si3 0.947201 0.437887 0.283312
Si Si4 0.858586 0.362988 0.113256
Si Si5 0.304161 0.727444 0.565285
Si Si6 0.574218 0.296678 0.590546
Si Si7 0.159538 0.973384 0.099521
Si Si8 0.500000 0.000000 0.000000
O O1 0.644304 0.114165 0.666510
O O2 0.719165 0.976718 0.818183
O O3 0.995627 0.219454 0.726412
O O4 0.850383 0.686743 0.719617
O O5 0.338538 0.686314 0.945924
O O6 0.525939 0.285199 0.932485
O O7 0.815892 0.349162 0.204641
O O8 0.855261 0.340583 0.367340
O O9 0.031049 0.653148 0.091793
O O10 0.975727 0.126271 0.101194
O O11 0.484199 0.566939 0.598596
O O12 0.260267 0.639401 0.477082
O O13 0.383583 0.069007 0.555880
O O14 0.311864 0.140398 0.031435
#
# Coordination Sequence:
#
# PCOD9002012 Si02
#       8
#     2   1   2   2   2   2   2   1
#     4  10  21  38  61  87 117 155 196 245 300 351
#     4  12  26  40  64  94 116 160 210 242 314 380
#     4  10  21  38  61  87 117 155 196 245 300 351
#     4  10  23  43  63  89 126 159 201 260 309 363
#     4  10  21  36  56  85 121 158 196 242 292 346
#     4  10  21  36  56  85 121 158 196 242 292 346
#     4  10  23  43  63  89 126 159 201 260 309 363
#     4  12  26  40  64  94 116 160 210 242 314 380
#
# _framework density 25.875285000000002
#
# number of rings (size 3 to 8) (size 9 to 14) (size 15 to 20)
#    0.000    1.714    0.000    3.429    0.000    6.857 
#    0.000    0.000    0.000    0.000    0.000    0.000 
#    0.000    0.000    0.000    0.000    0.000    0.000 
#
# Total GULP energy -78060.453773 kJ/mol
# GULP energy per Si atom -5575.746698 kJ/mol
# Density = 2.581639 g / cm^3
# Si number density = 25.875285 Si / 1000 Ang^3
#
#
#
# Elastic Constant Matrix: (Units=GPa)
#
#
# Indices 1 2 3 4 5 6 
#
# 1 43.7418 8.8027 34.5373 6.1892 12.1184 6.1682
# 2 8.8027 170.8461 2.3560 -1.1237 0.1042 -17.2369
# 3 34.5373 2.3560 114.2779 -7.9745 4.5818 -5.2636
# 4 6.1892 -1.1237 -7.9745 32.2300 -8.3101 1.4558
# 5 12.1184 0.1042 4.5818 -8.3101 54.5508 -14.4970
# 6 6.1682 -17.2369 -5.2636 1.4558 -14.4970 32.2588
#
#
#
# Elastic Compliance Matrix: (Units=1/GPa)
#
#
# Indices 1 2 3 4 5 6 
#
# 1 0.045135 -0.004235 -0.014921 -0.015858 -0.016504 -0.020029
# 2 -0.004235 0.006634 0.001427 0.001809 0.002591 0.005670
# 3 -0.014921 0.001427 0.013897 0.007383 0.005388 0.007971
# 4 -0.015858 0.001809 0.007383 0.038415 0.010985 0.008407
# 5 -0.016504 0.002591 0.005388 0.010985 0.027848 0.017438
# 6 -0.020029 0.005670 0.007971 0.008407 0.017438 0.046617
#
#
# Mechanical properties :
#
#
# Convention : Reuss Voigt Hill
#
# Bulk Modulus (GPa) = 33.10373 46.69529 39.89951
# Shear Modulus (GPa) = 22.31416 42.68589 32.50003
#
# Velocity S-wave (km/s) = 2.93981 4.06603 3.54789
# Velocity P-wave (km/s) = 4.93403 6.33474 5.67774
#
# Compressibility (1/GPa) = 0.03020807
#
# Stress axis : x y z
#
# Youngs Moduli (GPa) = 22.15565 150.73622 71.95840
#
# Poissons Ratio (x) = 0.63833 1.07369
# Poissons Ratio (y) = 0.09382 -0.10266
# Poissons Ratio (z) = 0.33058 -0.21504
#
# Static dielectric constant tensor:
#      x y z
#    x 2.281910 0.492450 0.096180 
#    y 0.492450 3.195700 0.272960 
#    z 0.096180 0.272960 2.209670 
# 
# From -- ./inp_files/7619.got.cif
#   From: 2010.05.17/outbox.cif.g08.bks.cpg/sg2_4_cif.got.tgz:7619.got - 2010.06.03 11:33:40.
