data_PCOD9002129
_publ_section_title
;
Structure prediction by ZEFSAII (Michael W. Deem and Ramdas Pophale) SiO2 
 PCOD9002129
Probable space group: P -1
;
_chemical_formula_sum "Si O2"
_cell_formula_units_Z 16
_cell_length_a 8.514466
_cell_length_b 5.432509
_cell_length_c 16.773418
_cell_angle_alpha 79.122291
_cell_angle_beta 81.040054
_cell_angle_gamma 83.358780
_cell_volume 749.633794
_symmetry_space_group_name_H-M "P -1"
_symmetry_group_IT_number 2
_symmetry_cell_setting 'triclinic'
loop_
_space_group_symop_operation_xyz
x,y,z
-x,-y,-z
loop_
_atom_site_type_symbol
_atom_site_label
_atom_site_fract_x
_atom_site_fract_y
_atom_site_fract_z
Si Si1 0.697679 0.932168 0.160199
Si Si2 0.777396 0.584157 0.602479
Si Si3 0.827123 0.216660 0.280109
Si Si4 0.546277 0.625673 0.306529
Si Si5 0.985364 0.513156 0.132510
Si Si6 0.146820 0.787438 0.987326
Si Si7 0.038057 0.959529 0.406261
Si Si8 0.585409 0.756964 0.465475
O O1 0.558014 0.771767 0.212852
O O2 0.856833 0.740423 0.153345
O O3 0.732620 0.109273 0.220442
O O4 0.700982 0.083653 0.067335
O O5 0.612404 0.513129 0.659640
O O6 0.845397 0.815498 0.628807
O O7 0.744369 0.682032 0.508135
O O8 0.885615 0.320103 0.602852
O O9 0.704162 0.432450 0.312595
O O10 0.980192 0.326811 0.218510
O O11 0.889872 0.027723 0.355161
O O12 0.566873 0.804304 0.370177
O O13 0.908029 0.379022 0.071648
O O14 0.144206 0.620243 0.077900
O O15 0.000000 0.000000 0.000000
O O16 0.000000 0.000000 0.500000
O O17 0.500000 0.500000 0.500000
O O18 0.500000 0.000000 0.500000
#
# Coordination Sequence:
#
# PCOD9002129 Si02
#       8
#     2   2   2   2   2   2   2   2
#     4   9  18  29  54  84 119 146 193 243 304 340
#     4  11  25  42  60  85 113 157 199 247 304 355
#     4  10  22  35  58  85 118 158 198 250 299 351
#     4  10  22  36  60  84 114 147 202 251 301 359
#     4   8  15  29  48  81 118 151 189 232 297 350
#     4   8  13  26  48  80 120 149 180 236 295 351
#     4  12  27  43  60  82 121 159 203 250 302 354
#     4  10  21  36  58  81 107 145 195 247 295 347
#
# _framework density 21.343758000000001
#
# number of rings (size 3 to 8) (size 9 to 14) (size 15 to 20)
#    0.000    2.250    0.000    2.625   10.500    0.000 
#    0.000    0.000    0.000    0.000    0.000    1.750 
#    0.000    0.000    0.000    0.000    0.000    0.000 
#
# Total GULP energy -89123.423670 kJ/mol
# GULP energy per Si atom -5570.213979 kJ/mol
# Density = 2.129518 g / cm^3
# Si number density = 21.343758 Si / 1000 Ang^3
#
#
#
# Elastic Constant Matrix: (Units=GPa)
#
#
# Indices 1 2 3 4 5 6 
#
# 1 42.5080 4.1632 10.8620 -12.6768 -15.8013 7.7085
# 2 4.1632 100.9661 14.5142 8.5743 -5.3035 -6.9661
# 3 10.8620 14.5142 113.8300 -23.2746 -42.4564 -3.4233
# 4 -12.6768 8.5743 -23.2746 46.4397 16.1172 -5.2620
# 5 -15.8013 -5.3035 -42.4564 16.1172 29.0124 -7.1333
# 6 7.7085 -6.9661 -3.4233 -5.2620 -7.1333 24.8222
#
#
#
# Elastic Compliance Matrix: (Units=1/GPa)
#
#
# Indices 1 2 3 4 5 6 
#
# 1 0.032885 -0.001466 0.007656 0.003767 0.026468 -0.001163
# 2 -0.001466 0.010740 -0.000815 -0.003328 0.002661 0.003416
# 3 0.007656 -0.000815 0.024864 0.001307 0.042989 0.013454
# 4 0.003767 -0.003328 0.001307 0.028099 -0.012119 0.000550
# 5 0.026468 0.002661 0.042989 -0.012119 0.126972 0.032375
# 6 -0.001163 0.003416 0.013454 0.000550 0.032375 0.052883
#
#
# Mechanical properties :
#
#
# Convention : Reuss Voigt Hill
#
# Bulk Modulus (GPa) = 12.61991 35.15364 23.88678
# Shear Modulus (GPa) = 17.11706 35.23918 26.17812
#
# Velocity S-wave (km/s) = 2.83498 4.06769 3.50594
# Velocity P-wave (km/s) = 4.07942 6.21027 5.25401
#
# Compressibility (1/GPa) = 0.07923987
#
# Stress axis : x y z
#
# Youngs Moduli (GPa) = 30.40857 93.10968 40.21868
#
# Poissons Ratio (x) = 0.13654 -0.30792
# Poissons Ratio (y) = 0.04459 0.03276
# Poissons Ratio (z) = -0.23282 0.07585
#
# Static dielectric constant tensor:
#      x y z
#    x 1.835830 0.154980 -0.017080 
#    y 0.154980 2.476180 0.426930 
#    z -0.017080 0.426930 2.208650 
# 
# From -- ./inp_files/552440.got.cif
#   From: 2010.05.17/outbox.cif.g08.bks.cpg/sg2_277_cif.got.tgz:552440.got - 2010.06.03 11:33:40.
