data_PCOD9002939
_publ_section_title
;
Structure prediction by ZEFSAII (Michael W. Deem and Ramdas Pophale) SiO2 
 PCOD9002939
Probable space group: P -1
;
_chemical_formula_sum "Si O2"
_cell_formula_units_Z 16
_cell_length_a 11.213484
_cell_length_b 24.172305
_cell_length_c 8.302638
_cell_angle_alpha 56.023632
_cell_angle_beta 60.988631
_cell_angle_gamma 22.367546
_cell_volume 706.575280
_symmetry_space_group_name_H-M "P -1"
_symmetry_group_IT_number 2
_symmetry_cell_setting 'triclinic'
loop_
_space_group_symop_operation_xyz
x,y,z
-x,-y,-z
loop_
_atom_site_type_symbol
_atom_site_label
_atom_site_fract_x
_atom_site_fract_y
_atom_site_fract_z
Si Si1 0.045204 0.041585 0.284832
Si Si2 0.684032 0.926514 0.169454
Si Si3 0.598949 0.809163 0.060210
Si Si4 0.641438 0.358860 0.466202
Si Si5 0.326892 0.503968 0.115967
Si Si6 0.567517 0.395874 0.802681
Si Si7 0.296324 0.872828 0.892077
Si Si8 0.236577 0.033790 0.463975
O O1 0.064379 0.095339 0.304487
O O2 0.779709 0.153673 0.138017
O O3 0.382462 0.884452 0.231111
O O4 0.000000 0.000000 0.500000
O O5 0.056550 0.759478 0.171304
O O6 0.558478 0.926525 0.374670
O O7 0.500000 0.000000 0.000000
O O8 0.577828 0.045022 0.115320
O O9 0.951599 0.673184 0.093613
O O10 0.580691 0.761309 0.010485
O O11 0.445648 0.419713 0.341651
O O12 0.534426 0.377313 0.678581
O O13 0.593066 0.459868 0.341040
O O14 0.001631 0.182641 0.478729
O O15 0.500000 0.500000 0.000000
O O16 0.419628 0.430907 0.003750
O O17 0.284179 0.943901 0.672527
O O18 0.000000 0.000000 0.000000
#
# Coordination Sequence:
#
# PCOD9002939 Si02
#       8
#     2   2   2   2   2   2   2   2
#     4   9  20  39  62  91 115 161 216 270 308 354
#     4  12  21  33  60 103 131 158 205 257 335 385
#     4  11  21  38  64  94 128 164 208 265 319 381
#     4  10  21  37  54  85 125 174 203 240 306 385
#     4  10  21  37  56  87 133 175 197 242 317 391
#     4  10  22  37  54  84 139 175 197 239 309 404
#     4   9  21  40  62  90 117 161 217 272 306 358
#     4  11  21  36  64  95 125 161 206 267 321 381
#
# _framework density 22.644438000000001
#
# number of rings (size 3 to 8) (size 9 to 14) (size 15 to 20)
#    0.000    1.750    1.250    4.500    0.000    5.000 
#    2.250    0.000    0.000    7.500    0.000    0.000 
#    0.000    0.000    0.000    0.000    0.000    0.000 
#
# Total GULP energy -89321.603668 kJ/mol
# GULP energy per Si atom -5582.600229 kJ/mol
# Density = 2.259290 g / cm^3
# Si number density = 22.644438 Si / 1000 Ang^3
#
#
#
# Elastic Constant Matrix: (Units=GPa)
#
#
# Indices 1 2 3 4 5 6 
#
# 1 84.3235 31.5243 31.0561 15.5899 26.5015 -7.5524
# 2 31.5243 121.1322 36.1582 15.4022 1.1160 -7.8355
# 3 31.0561 36.1582 133.5177 33.7273 20.8383 -5.8287
# 4 15.5899 15.4022 33.7273 28.7024 -1.8160 4.5524
# 5 26.5015 1.1160 20.8383 -1.8160 51.3684 8.7736
# 6 -7.5524 -7.8355 -5.8287 4.5524 8.7736 34.2699
#
#
#
# Elastic Compliance Matrix: (Units=1/GPa)
#
#
# Indices 1 2 3 4 5 6 
#
# 1 0.019790 -0.003343 0.002261 -0.013898 -0.013115 0.009185
# 2 -0.003343 0.009882 -0.001852 -0.001315 0.002069 0.000852
# 3 0.002261 -0.001852 0.013593 -0.017839 -0.008453 0.006921
# 4 -0.013898 -0.001315 -0.017839 0.068638 0.020404 -0.020739
# 5 -0.013115 0.002069 -0.008453 0.020404 0.032899 -0.014988
# 6 0.009185 0.000852 0.006921 -0.020739 -0.014988 0.039168
#
#
# Mechanical properties :
#
#
# Convention : Reuss Voigt Hill
#
# Bulk Modulus (GPa) = 26.74062 59.60561 43.17312
# Shear Modulus (GPa) = 24.71531 38.88380 31.79956
#
# Velocity S-wave (km/s) = 3.30730 4.14834 3.75146
# Velocity P-wave (km/s) = 5.13993 7.02314 6.15400
#
# Compressibility (1/GPa) = 0.03739629
#
# Stress axis : x y z
#
# Youngs Moduli (GPa) = 50.53004 101.19866 73.56691
#
# Poissons Ratio (x) = 0.33831 -0.16632
# Poissons Ratio (y) = 0.16892 0.13625
# Poissons Ratio (z) = -0.11424 0.18743
#
# Static dielectric constant tensor:
#      x y z
#    x 1.927890 0.036940 0.053690 
#    y 0.036940 1.687660 -0.008520 
#    z 0.053690 -0.008520 1.880830 
# 
# From -- ./inp_files/285686.got.cif
#   From: 2010.05.17/outbox.cif.g08.bks.cpg/sg2_143_cif.got.tgz:285686.got - 2010.06.03 11:33:40.
