data_PCOD9002962
_publ_section_title
;
Structure prediction by ZEFSAII (Michael W. Deem and Ramdas Pophale) SiO2 
 PCOD9002962
Probable space group: P -1
;
_chemical_formula_sum "Si O2"
_cell_formula_units_Z 16
_cell_length_a 9.062410
_cell_length_b 22.248490
_cell_length_c 9.109222
_cell_angle_alpha 61.441636
_cell_angle_beta 102.615734
_cell_angle_gamma 49.283251
_cell_volume 739.280009
_symmetry_space_group_name_H-M "P -1"
_symmetry_group_IT_number 2
_symmetry_cell_setting 'triclinic'
loop_
_space_group_symop_operation_xyz
x,y,z
-x,-y,-z
loop_
_atom_site_type_symbol
_atom_site_label
_atom_site_fract_x
_atom_site_fract_y
_atom_site_fract_z
Si Si1 0.774453 0.912059 0.385665
Si Si2 0.867068 0.807975 0.824885
Si Si3 0.452616 0.109633 0.822196
Si Si4 0.859456 0.097275 0.498795
Si Si5 0.415556 0.809134 0.121777
Si Si6 0.603995 0.499237 0.669971
Si Si7 0.269201 0.285543 0.010114
Si Si8 0.096949 0.802203 0.160716
O O1 0.708994 0.908977 0.536119
O O2 0.808634 0.829503 0.393197
O O3 0.047308 0.860351 0.526237
O O4 0.503220 0.060085 0.056230
O O5 0.674132 0.819039 0.832344
O O6 0.197688 0.637403 0.037712
O O7 0.977825 0.814673 0.969300
O O8 0.412537 0.206310 0.714182
O O9 0.792300 0.956242 0.996621
O O10 0.480896 0.236907 0.238298
O O11 0.000000 0.000000 0.500000
O O12 0.058842 0.983243 0.806648
O O13 0.344439 0.763307 0.219497
O O14 0.608389 0.736298 0.094714
O O15 0.500000 0.500000 0.500000
O O16 0.292690 0.666346 0.452107
O O17 0.886649 0.440460 0.761030
#
# Coordination Sequence:
#
# PCOD9002962 Si02
#       8
#     2   2   2   2   2   2   2   2
#     4  10  21  38  57  82 115 154 186 229 290 340
#     4   9  20  35  61  84 110 145 192 235 280 330
#     4  10  24  36  57  85 122 148 190 228 281 351
#     4   9  18  31  52  85 113 134 184 235 275 331
#     4  10  21  37  55  85 117 152 185 230 288 340
#     4   8  19  35  57  88 114 140 193 240 278 329
#     4   9  19  35  60  85 118 138 189 246 275 326
#     4  11  21  37  60  83 116 153 189 232 287 330
#
# _framework density 21.642681
#
# number of rings (size 3 to 8) (size 9 to 14) (size 15 to 20)
#    0.750    1.750    0.000    1.875    8.750    1.000 
#    0.000    0.625    0.000    6.750    0.000    0.000 
#    0.000    0.000    0.000    0.000    0.000    0.000 
#
# Total GULP energy -89116.986702 kJ/mol
# GULP energy per Si atom -5569.811669 kJ/mol
# Density = 2.159342 g / cm^3
# Si number density = 21.642681 Si / 1000 Ang^3
#
#
#
# Elastic Constant Matrix: (Units=GPa)
#
#
# Indices 1 2 3 4 5 6 
#
# 1 122.0532 38.3301 34.5558 16.2630 14.6443 29.0747
# 2 38.3301 60.9743 34.7175 10.0556 0.6908 6.5327
# 3 34.5558 34.7175 60.4073 5.6323 5.5534 1.7015
# 4 16.2630 10.0556 5.6323 27.5645 3.0481 7.5556
# 5 14.6443 0.6908 5.5534 3.0481 43.4274 8.0716
# 6 29.0747 6.5327 1.7015 7.5556 8.0716 38.6366
#
#
#
# Elastic Compliance Matrix: (Units=1/GPa)
#
#
# Indices 1 2 3 4 5 6 
#
# 1 0.013459 -0.004611 -0.004348 -0.002899 -0.002194 -0.008132
# 2 -0.004611 0.027508 -0.012997 -0.004926 0.003183 -0.000311
# 3 -0.004348 -0.012997 0.026540 0.000894 -0.002653 0.004680
# 4 -0.002899 -0.004926 0.000894 0.041043 -0.001041 -0.004834
# 5 -0.002194 0.003183 -0.002653 -0.001041 0.024826 -0.003753
# 6 -0.008132 -0.000311 0.004680 -0.004834 -0.003753 0.033577
#
#
# Mechanical properties :
#
#
# Convention : Reuss Voigt Hill
#
# Bulk Modulus (GPa) = 42.38022 50.96018 46.67020
# Shear Modulus (GPa) = 22.85924 30.98111 26.92018
#
# Velocity S-wave (km/s) = 3.25347 3.78760 3.53065
# Velocity P-wave (km/s) = 5.80841 6.53645 6.18315
#
# Compressibility (1/GPa) = 0.02359591
#
# Stress axis : x y z
#
# Youngs Moduli (GPa) = 74.30140 36.35248 37.67908
#
# Poissons Ratio (x) = 0.16761 0.16383
# Poissons Ratio (y) = 0.34258 0.48971
# Poissons Ratio (z) = 0.32307 0.47247
#
# Static dielectric constant tensor:
#      x y z
#    x 1.847060 -0.050100 0.024540 
#    y -0.050100 1.907740 -0.044720 
#    z 0.024540 -0.044720 1.796230 
# 
# From -- ./inp_files/226142.got.cif
#   From: 2010.05.17/outbox.cif.g08.bks.cpg/sg2_114_cif.got.tgz:226142.got - 2010.06.03 11:33:40.
