data_PCOD9002271
_publ_section_title
;
Structure prediction by ZEFSAII (Michael W. Deem and Ramdas Pophale) SiO2 
 PCOD9002271
Probable space group: P -1
;
_chemical_formula_sum "Si O2"
_cell_formula_units_Z 16
_cell_length_a 11.589861
_cell_length_b 13.814257
_cell_length_c 14.243431
_cell_angle_alpha 38.977944
_cell_angle_beta 151.951027
_cell_angle_gamma 126.273540
_cell_volume 639.210312
_symmetry_space_group_name_H-M "P -1"
_symmetry_group_IT_number 2
_symmetry_cell_setting 'triclinic'
loop_
_space_group_symop_operation_xyz
x,y,z
-x,-y,-z
loop_
_atom_site_type_symbol
_atom_site_label
_atom_site_fract_x
_atom_site_fract_y
_atom_site_fract_z
Si Si1 0.695747 0.321989 0.251513
Si Si2 0.569137 0.112438 0.679771
Si Si3 0.232939 0.863482 0.999311
Si Si4 0.310399 0.164558 0.163852
Si Si5 0.155461 0.934800 0.568473
Si Si6 0.130878 0.328195 0.104108
Si Si7 0.327318 0.422415 0.502009
Si Si8 0.061019 0.499840 0.433963
O O1 0.586827 0.196955 0.324717
O O2 0.699379 0.256708 0.197427
O O3 0.960677 0.352663 0.440464
O O4 0.500000 0.500000 0.000000
O O5 0.758046 0.118776 0.895090
O O6 0.380131 0.289724 0.378346
O O7 0.695672 0.998594 0.768056
O O8 0.373780 0.020681 0.647736
O O9 0.530986 0.770234 0.258028
O O10 0.081429 0.739641 0.950252
O O11 0.062391 0.020880 0.703835
O O12 0.237630 0.199638 0.192948
O O13 0.110316 0.317142 0.853536
O O14 0.000000 0.000000 0.500000
O O15 0.964098 0.499327 0.810076
O O16 0.500000 0.500000 0.500000
O O17 0.302911 0.471549 0.557455
O O18 0.000000 0.500000 0.500000
#
# Coordination Sequence:
#
# PCOD9002271 Si02
#       8
#     2   2   2   2   2   2   2   2
#     4   9  20  39  59  84 121 159 204 251 307 373
#     4  10  21  36  59  88 118 159 204 255 316 365
#     4  10  22  37  60  90 119 159 208 254 310 375
#     4   9  19  38  57  83 121 158 201 253 309 368
#     4  10  23  40  60  87 125 162 204 259 313 379
#     4   9  19  40  58  84 121 159 205 259 305 370
#     4   9  20  40  60  85 129 159 204 261 307 371
#     4  10  21  36  62  91 120 159 207 259 308 373
#
# _framework density 25.030885999999999
#
# number of rings (size 3 to 8) (size 9 to 14) (size 15 to 20)
#    0.000    2.500    0.000    0.375    3.500    4.500 
#    6.750    0.000    0.000    0.000    0.000    0.000 
#    0.000    0.000    0.000    0.000    0.000    0.000 
#
# Total GULP energy -89113.198479 kJ/mol
# GULP energy per Si atom -5569.574905 kJ/mol
# Density = 2.497391 g / cm^3
# Si number density = 25.030886 Si / 1000 Ang^3
#
#
#
# Elastic Constant Matrix: (Units=GPa)
#
#
# Indices 1 2 3 4 5 6 
#
# 1 127.0962 15.9493 23.9073 3.8685 21.5081 -17.0277
# 2 15.9493 76.0222 24.4172 5.9717 11.7113 1.4018
# 3 23.9073 24.4172 86.0033 -4.7159 -0.7564 -19.2158
# 4 3.8685 5.9717 -4.7159 28.4270 -11.6412 3.9871
# 5 21.5081 11.7113 -0.7564 -11.6412 41.5785 -0.5477
# 6 -17.0277 1.4018 -19.2158 3.9871 -0.5477 27.8953
#
#
#
# Elastic Compliance Matrix: (Units=1/GPa)
#
#
# Indices 1 2 3 4 5 6 
#
# 1 0.010288 -0.000220 -0.001889 -0.005185 -0.006673 0.005600
# 2 -0.000220 0.016781 -0.006099 -0.006611 -0.006632 -0.004364
# 3 -0.001889 -0.006099 0.016382 0.004691 0.004436 0.009855
# 4 -0.005185 -0.006611 0.004691 0.046008 0.017434 -0.005835
# 5 -0.006673 -0.006632 0.004436 0.017434 0.034300 -0.002502
# 6 0.005600 -0.004364 0.009855 -0.005835 -0.002502 0.047059
#
#
# Mechanical properties :
#
#
# Convention : Reuss Voigt Hill
#
# Bulk Modulus (GPa) = 36.98907 46.40770 41.69838
# Shear Modulus (GPa) = 25.47819 34.57002 30.02410
#
# Velocity S-wave (km/s) = 3.19387 3.72034 3.46711
# Velocity P-wave (km/s) = 5.33015 6.08564 5.72038
#
# Compressibility (1/GPa) = 0.02703502
#
# Stress axis : x y z
#
# Youngs Moduli (GPa) = 97.19825 59.59291 61.04121
#
# Poissons Ratio (x) = 0.01309 0.11533
# Poissons Ratio (y) = 0.02135 0.37229
# Poissons Ratio (z) = 0.18365 0.36346
#
# Static dielectric constant tensor:
#      x y z
#    x 2.075200 -0.043640 0.048330 
#    y -0.043640 1.967410 -0.000340 
#    z 0.048330 -0.000340 2.174890 
# 
# From -- ./inp_files/522303.got.cif
#   From: 2010.05.17/outbox.cif.g08.bks.cpg/sg2_262_cif.got.tgz:522303.got - 2010.06.03 11:33:40.
