data_PCOD9002291
_publ_section_title
;
Structure prediction by ZEFSAII (Michael W. Deem and Ramdas Pophale) SiO2 
 PCOD9002291
Probable space group: P -1
;
_chemical_formula_sum "Si O2"
_cell_formula_units_Z 14
_cell_length_a 7.889548
_cell_length_b 14.086444
_cell_length_c 11.020914
_cell_angle_alpha 30.664318
_cell_angle_beta 88.174717
_cell_angle_gamma 92.548331
_cell_volume 618.113585
_symmetry_space_group_name_H-M "P -1"
_symmetry_group_IT_number 2
_symmetry_cell_setting 'triclinic'
loop_
_space_group_symop_operation_xyz
x,y,z
-x,-y,-z
loop_
_atom_site_type_symbol
_atom_site_label
_atom_site_fract_x
_atom_site_fract_y
_atom_site_fract_z
Si Si1 0.047787 0.178494 0.560999
Si Si2 0.488934 0.351886 0.771611
Si Si3 0.119174 0.884668 0.042591
Si Si4 0.125292 0.581766 0.211875
Si Si5 0.679251 0.071253 0.778203
Si Si6 0.418255 0.586493 0.727939
Si Si7 0.776613 0.518170 0.918982
O O1 0.067956 0.358029 0.456392
O O2 0.105595 0.280765 0.321665
O O3 0.852957 0.084237 0.679790
O O4 0.165944 0.030072 0.770430
O O5 0.500000 0.500000 0.500000
O O6 0.681492 0.364033 0.804744
O O7 0.382066 0.430695 0.796159
O O8 0.407470 0.141471 0.975260
O O9 0.028936 0.699142 0.179555
O O10 0.263596 0.855528 0.168823
O O11 0.000000 0.000000 0.000000
O O12 0.138743 0.617757 0.026612
O O13 0.570933 0.213888 0.558013
O O14 0.596658 0.556895 0.819787
O O15 0.270227 0.558468 0.863425
#
# Coordination Sequence:
#
# PCOD9002291 Si02
#       7
#     2   2   2   2   2   2   2
#     4   9  21  41  60  89 125 162 205 247 311 361
#     4  11  23  38  60  95 126 157 203 258 312 360
#     4  10  21  36  59  90 124 158 203 249 307 366
#     4   9  20  38  61  84 116 169 200 241 308 362
#     4  11  24  35  62  98 121 158 206 259 304 364
#     4  10  21  42  63  89 127 159 212 251 305 364
#     4   8  20  43  63  86 122 171 200 256 300 366
#
# _framework density 22.649557000000001
#
# number of rings (size 3 to 8) (size 9 to 14) (size 15 to 20)
#    0.857    1.429    0.000    1.714    2.000    6.286 
#    2.571    2.857    0.000    0.000    0.000    0.000 
#    0.000    0.000    0.000    0.000    0.000    0.000 
#
# Total GULP energy -78051.917024 kJ/mol
# GULP energy per Si atom -5575.136930 kJ/mol
# Density = 2.259801 g / cm^3
# Si number density = 22.649557 Si / 1000 Ang^3
#
#
#
# Elastic Constant Matrix: (Units=GPa)
#
#
# Indices 1 2 3 4 5 6 
#
# 1 58.4825 1.9628 16.0880 9.5425 -14.3297 5.2391
# 2 1.9628 64.0180 36.6749 14.8046 1.6937 -11.5484
# 3 16.0880 36.6749 116.0262 -3.0348 -4.3333 7.4715
# 4 9.5425 14.8046 -3.0348 28.2383 2.5067 -7.1597
# 5 -14.3297 1.6937 -4.3333 2.5067 35.5725 0.3624
# 6 5.2391 -11.5484 7.4715 -7.1597 0.3624 23.8667
#
#
#
# Elastic Compliance Matrix: (Units=1/GPa)
#
#
# Indices 1 2 3 4 5 6 
#
# 1 0.022855 0.002733 -0.003583 -0.011990 0.009549 -0.006315
# 2 0.002733 0.026084 -0.009701 -0.012743 -0.000539 0.011244
# 3 -0.003583 -0.009701 0.012740 0.006110 0.000202 -0.006066
# 4 -0.011990 -0.012743 0.006110 0.049871 -0.007091 0.009622
# 5 0.009549 -0.000539 0.000202 -0.007091 0.032560 -0.005042
# 6 -0.006315 0.011244 -0.006066 0.009622 -0.005042 0.053588
#
#
# Mechanical properties :
#
#
# Convention : Reuss Voigt Hill
#
# Bulk Modulus (GPa) = 24.64516 38.66423 31.65469
# Shear Modulus (GPa) = 21.52144 29.78890 25.65517
#
# Velocity S-wave (km/s) = 3.08586 3.63052 3.36921
# Velocity P-wave (km/s) = 4.85813 5.88913 5.39830
#
# Compressibility (1/GPa) = 0.04057592
#
# Stress axis : x y z
#
# Youngs Moduli (GPa) = 43.75397 38.33771 78.49232
#
# Poissons Ratio (x) = -0.10478 0.28126
# Poissons Ratio (y) = -0.11958 0.76148
# Poissons Ratio (z) = 0.15678 0.37193
#
# Static dielectric constant tensor:
#      x y z
#    x 1.973100 -0.090810 0.066170 
#    y -0.090810 1.893880 -0.002390 
#    z 0.066170 -0.002390 1.871490 
# 
# From -- ./inp_files/393444.got.cif
#   From: 2010.05.17/outbox.cif.g08.bks.cpg/sg2_197_cif.got.tgz:393444.got - 2010.06.03 11:33:40.
