data_PCOD9002364
_publ_section_title
;
Structure prediction by ZEFSAII (Michael W. Deem and Ramdas Pophale) SiO2 
 PCOD9002364
Probable space group: P -1
;
_chemical_formula_sum "Si O2"
_cell_formula_units_Z 16
_cell_length_a 7.183971
_cell_length_b 15.103513
_cell_length_c 10.804798
_cell_angle_alpha 61.989636
_cell_angle_beta 139.997628
_cell_angle_gamma 118.952920
_cell_volume 649.170048
_symmetry_space_group_name_H-M "P -1"
_symmetry_group_IT_number 2
_symmetry_cell_setting 'triclinic'
loop_
_space_group_symop_operation_xyz
x,y,z
-x,-y,-z
loop_
_atom_site_type_symbol
_atom_site_label
_atom_site_fract_x
_atom_site_fract_y
_atom_site_fract_z
Si Si1 0.569410 0.869744 0.374738
Si Si2 0.263400 0.002252 0.992367
Si Si3 0.549567 0.512985 0.660495
Si Si4 0.109700 0.929879 0.439324
Si Si5 0.875773 0.478232 0.300021
Si Si6 0.578437 0.817792 0.840732
Si Si7 0.579824 0.704261 0.692107
Si Si8 0.619997 0.393134 0.991040
O O1 0.506514 0.775556 0.497879
O O2 0.811744 0.864308 0.395441
O O3 0.740985 0.970167 0.471171
O O4 0.287997 0.900583 0.147296
O O5 0.976550 0.023013 0.763055
O O6 0.325121 0.090519 0.071003
O O7 0.500000 0.000000 0.000000
O O8 0.500000 0.500000 0.500000
O O9 0.711997 0.618583 0.741525
O O10 0.642659 0.420083 0.840883
O O11 0.194543 0.508285 0.505142
O O12 0.338361 0.856983 0.606534
O O13 0.693892 0.367036 0.327286
O O14 0.670982 0.561698 0.150342
O O15 0.883255 0.457284 0.168398
O O16 0.753146 0.771581 0.849377
O O17 0.441690 0.724053 0.924144
#
# Coordination Sequence:
#
# PCOD9002364 Si02
#       8
#     2   2   2   2   2   2   2   2
#     4   9  19  38  58  84 121 156 196 246 295 348
#     4   9  19  36  58  85 117 153 196 244 294 348
#     4  11  24  41  63  90 121 155 197 251 300 351
#     4   9  19  37  60  84 118 158 195 245 299 344
#     4   9  20  41  63  85 121 160 194 246 301 351
#     4  10  21  36  60  87 115 156 199 243 292 351
#     4  10  21  38  59  86 120 153 195 243 292 352
#     4   9  19  38  61  88 121 158 197 240 297 359
#
# _framework density 24.646854000000001
#
# number of rings (size 3 to 8) (size 9 to 14) (size 15 to 20)
#    0.000    2.500    0.000    3.000    0.000    9.500 
#    0.000   13.750    0.000    0.000    0.000    0.000 
#    0.000    0.000    0.000    0.000    0.000    0.000 
#
# Total GULP energy -89187.462219 kJ/mol
# GULP energy per Si atom -5574.216389 kJ/mol
# Density = 2.459076 g / cm^3
# Si number density = 24.646854 Si / 1000 Ang^3
#
#
#
# Elastic Constant Matrix: (Units=GPa)
#
#
# Indices 1 2 3 4 5 6 
#
# 1 89.8726 29.5761 16.6048 -3.0651 -29.0262 -16.1711
# 2 29.5761 80.8573 50.6587 0.0761 -1.4136 -9.8275
# 3 16.6048 50.6587 171.3235 1.8340 -20.8493 8.6967
# 4 -3.0651 0.0761 1.8340 47.3552 2.2132 -17.7444
# 5 -29.0262 -1.4136 -20.8493 2.2132 42.5253 -0.4698
# 6 -16.1711 -9.8275 8.6967 -17.7444 -0.4698 25.2883
#
#
#
# Elastic Compliance Matrix: (Units=1/GPa)
#
#
# Indices 1 2 3 4 5 6 
#
# 1 0.020332 -0.005667 0.000534 0.006423 0.013787 0.015379
# 2 -0.005667 0.019343 -0.006408 0.003244 -0.006445 0.008253
# 3 0.000534 -0.006408 0.008629 -0.003235 0.004470 -0.007304
# 4 0.006423 0.003244 -0.003235 0.032588 0.001534 0.029375
# 5 0.013787 -0.006445 0.004470 0.001534 0.034895 0.006499
# 6 0.015379 0.008253 -0.007304 0.029375 0.006499 0.075830
#
#
# Mechanical properties :
#
#
# Convention : Reuss Voigt Hill
#
# Bulk Modulus (GPa) = 39.65031 59.52585 49.58808
# Shear Modulus (GPa) = 22.41065 39.38134 30.89599
#
# Velocity S-wave (km/s) = 3.01868 4.00162 3.54439
# Velocity P-wave (km/s) = 5.31716 6.74941 6.07564
#
# Compressibility (1/GPa) = 0.02522049
#
# Stress axis : x y z
#
# Youngs Moduli (GPa) = 49.18285 51.69924 115.88380
#
# Poissons Ratio (x) = 0.29300 -0.06183
# Poissons Ratio (y) = 0.27873 0.74260
# Poissons Ratio (z) = -0.02624 0.33129
#
# Static dielectric constant tensor:
#      x y z
#    x 2.305750 -0.000780 -0.018450 
#    y -0.000780 1.973960 0.037420 
#    z -0.018450 0.037420 1.930260 
# 
# From -- ./inp_files/401980.got.cif
#   From: 2010.05.17/outbox.cif.g08.bks.cpg/sg2_201_cif.got.tgz:401980.got - 2010.06.03 11:33:40.
