data_PCOD9002537
_publ_section_title
;
Structure prediction by ZEFSAII (Michael W. Deem and Ramdas Pophale) SiO2 
 PCOD9002537
Probable space group: P -1
;
_chemical_formula_sum "Si O2"
_cell_formula_units_Z 14
_cell_length_a 20.005856
_cell_length_b 11.253094
_cell_length_c 16.373189
_cell_angle_alpha 37.282553
_cell_angle_beta 160.746947
_cell_angle_gamma 154.206458
_cell_volume 489.458394
_symmetry_space_group_name_H-M "P -1"
_symmetry_group_IT_number 2
_symmetry_cell_setting 'triclinic'
loop_
_space_group_symop_operation_xyz
x,y,z
-x,-y,-z
loop_
_atom_site_type_symbol
_atom_site_label
_atom_site_fract_x
_atom_site_fract_y
_atom_site_fract_z
Si Si1 0.911520 0.929666 0.843014
Si Si2 0.815717 0.691477 0.188706
Si Si3 0.251569 0.795935 0.024999
Si Si4 0.230002 0.551608 0.577267
Si Si5 0.740063 0.960903 0.247413
Si Si6 0.275606 0.838873 0.224537
Si Si7 0.391687 0.291143 0.600993
O O1 0.555981 0.615640 0.597472
O O2 0.016221 0.192544 0.767842
O O3 0.091258 0.879573 0.034432
O O4 0.000000 0.000000 0.000000
O O5 0.812754 0.496888 0.347947
O O6 0.491720 0.565607 0.866764
O O7 0.037522 0.998888 0.330752
O O8 0.376939 0.047639 0.969122
O O9 0.893780 0.481398 0.767915
O O10 0.258059 0.835226 0.107280
O O11 0.440223 0.744309 0.242433
O O12 0.915046 0.264679 0.328906
O O13 0.372581 0.842287 0.536543
O O14 0.000000 0.000000 0.500000
O O15 0.551414 0.721888 0.231683
#
# Coordination Sequence:
#
# PCOD9002537 Si02
#       7
#     2   2   2   2   2   2   2
#     4  10  21  36  61  96 128 164 213 267 309 367
#     4   9  19  37  60  89 128 160 208 259 306 370
#     4  10  22  43  64  92 129 168 211 255 317 384
#     4   9  20  38  62  93 123 163 216 255 309 368
#     4  11  25  38  67  98 124 169 209 265 317 371
#     4   9  21  41  65  87 127 175 206 255 316 376
#     4  10  22  41  62  94 128 169 208 256 324 370
#
# _framework density 28.603043
#
# number of rings (size 3 to 8) (size 9 to 14) (size 15 to 20)
#    0.000    2.286    0.000    0.857   14.000    0.571 
#    2.571    5.714    0.000    0.000    0.000    0.000 
#    0.000    0.000    0.000    0.000    0.000    0.000 
#
# Total GULP energy -78351.206022 kJ/mol
# GULP energy per Si atom -5596.514716 kJ/mol
# Density = 2.853794 g / cm^3
# Si number density = 28.603043 Si / 1000 Ang^3
#
#
#
# Elastic Constant Matrix: (Units=GPa)
#
#
# Indices 1 2 3 4 5 6 
#
# 1 194.0868 30.2937 37.6732 -13.6641 -7.8434 37.8147
# 2 30.2937 105.9927 19.6756 5.5094 -4.7512 44.6657
# 3 37.6732 19.6756 63.5052 -3.0665 -0.2312 4.9685
# 4 -13.6641 5.5094 -3.0665 42.8806 -0.8552 -5.0302
# 5 -7.8434 -4.7512 -0.2312 -0.8552 58.9748 -3.7160
# 6 37.8147 44.6657 4.9685 -5.0302 -3.7160 47.8939
#
#
#
# Elastic Compliance Matrix: (Units=1/GPa)
#
#
# Indices 1 2 3 4 5 6 
#
# 1 0.007045 0.001336 -0.004052 0.001066 0.000652 -0.006225
# 2 0.001336 0.017506 -0.005067 -0.004203 0.000419 -0.017264
# 3 -0.004052 -0.005067 0.019316 0.001440 -0.000470 0.006035
# 4 0.001066 -0.004203 0.001440 0.024970 0.000523 0.005591
# 5 0.000652 0.000419 -0.000470 0.000523 0.017116 0.000526
# 6 -0.006225 -0.017264 0.006035 0.005591 0.000526 0.041896
#
#
# Mechanical properties :
#
#
# Convention : Reuss Voigt Hill
#
# Bulk Modulus (GPa) = 35.33582 59.87439 47.60511
# Shear Modulus (GPa) = 32.71243 48.34601 40.52922
#
# Velocity S-wave (km/s) = 3.38549 4.11571 3.76833
# Velocity P-wave (km/s) = 5.25954 6.60029 5.96768
#
# Compressibility (1/GPa) = 0.02829990
#
# Stress axis : x y z
#
# Youngs Moduli (GPa) = 141.95302 57.12472 51.77068
#
# Poissons Ratio (x) = -0.07631 0.20978
# Poissons Ratio (y) = -0.18962 0.26231
# Poissons Ratio (z) = 0.57520 0.28944
#
# Static dielectric constant tensor:
#      x y z
#    x 2.236200 -0.023330 0.015690 
#    y -0.023330 2.284170 0.061730 
#    z 0.015690 0.061730 2.330670 
# 
# From -- ./inp_files/343564.got.cif
#   From: 2010.05.17/outbox.cif.g08.bks.cpg/sg2_172_cif.got.tgz:343564.got - 2010.06.03 11:33:40.
