data_PCOD9002420
_publ_section_title
;
Structure prediction by ZEFSAII (Michael W. Deem and Ramdas Pophale) SiO2 
 PCOD9002420
Probable space group: P -1
;
_chemical_formula_sum "Si O2"
_cell_formula_units_Z 16
_cell_length_a 13.372069
_cell_length_b 8.850637
_cell_length_c 11.745085
_cell_angle_alpha 61.921143
_cell_angle_beta 50.347093
_cell_angle_gamma 54.446474
_cell_volume 859.625079
_symmetry_space_group_name_H-M "P -1"
_symmetry_group_IT_number 2
_symmetry_cell_setting 'triclinic'
loop_
_space_group_symop_operation_xyz
x,y,z
-x,-y,-z
loop_
_atom_site_type_symbol
_atom_site_label
_atom_site_fract_x
_atom_site_fract_y
_atom_site_fract_z
Si Si1 0.524671 0.855937 0.134362
Si Si2 0.765017 0.167910 0.577688
Si Si3 0.689456 0.423675 0.144130
Si Si4 0.441302 0.418173 0.464163
Si Si5 0.688159 0.829794 0.253703
Si Si6 0.906566 0.435162 0.171742
Si Si7 0.031233 0.031860 0.291368
Si Si8 0.145553 0.918413 0.993058
O O1 0.374724 0.871826 0.289017
O O2 0.614711 0.645424 0.098029
O O3 0.618015 0.876004 0.163132
O O4 0.500000 0.000000 0.000000
O O5 0.700848 0.395111 0.530461
O O6 0.870464 0.060201 0.434641
O O7 0.862096 0.093748 0.645431
O O8 0.560390 0.374913 0.297096
O O9 0.798339 0.389586 0.183677
O O10 0.771116 0.299282 0.023038
O O11 0.500000 0.500000 0.500000
O O12 0.421435 0.227786 0.573066
O O13 0.817539 0.623555 0.237026
O O14 0.757273 0.978405 0.162557
O O15 0.005786 0.250969 0.233368
O O16 0.000000 0.500000 0.000000
O O17 0.098171 0.958051 0.145194
O O18 0.000000 0.000000 0.000000
#
# Coordination Sequence:
#
# PCOD9002420 Si02
#       8
#     2   2   2   2   2   2   2   2
#     4  10  21  38  62  91 115 152 213 257 294 349
#     4  10  21  36  60  93 115 156 197 268 298 335
#     4  10  22  37  59  87 120 161 193 252 305 350
#     4  11  18  38  63  87 117 150 211 255 295 348
#     4  11  21  34  63  88 113 159 208 250 292 355
#     4  11  18  33  58  89 111 152 207 252 282 345
#     4  11  21  35  59  87 123 155 202 244 308 358
#     4  12  24  39  57  91 131 161 194 242 314 372
#
# _framework density 18.612765
#
# number of rings (size 3 to 8) (size 9 to 14) (size 15 to 20)
#    0.000    1.250    7.500    0.750    1.750    0.500 
#    0.000    5.625    0.000    1.500    0.000    0.000 
#    0.000    0.000    0.000    0.000    0.000    0.000 
#
# Total GULP energy -89111.708873 kJ/mol
# GULP energy per Si atom -5569.481805 kJ/mol
# Density = 1.857040 g / cm^3
# Si number density = 18.612765 Si / 1000 Ang^3
#
#
#
# Elastic Constant Matrix: (Units=GPa)
#
#
# Indices 1 2 3 4 5 6 
#
# 1 60.9358 44.7350 24.3190 -12.9234 -9.6053 -11.8837
# 2 44.7350 83.8304 34.1183 -3.5565 2.9060 -20.3168
# 3 24.3190 34.1183 79.6221 -13.4418 -6.0105 -10.2969
# 4 -12.9234 -3.5565 -13.4418 44.1533 -3.1328 1.6380
# 5 -9.6053 2.9060 -6.0105 -3.1328 30.2111 -7.3408
# 6 -11.8837 -20.3168 -10.2969 1.6380 -7.3408 26.6313
#
#
#
# Elastic Compliance Matrix: (Units=1/GPa)
#
#
# Indices 1 2 3 4 5 6 
#
# 1 0.034537 -0.017258 0.000404 0.009697 0.015182 0.005990
# 2 -0.017258 0.025547 -0.006274 -0.005747 -0.007961 0.007522
# 3 0.000404 -0.006274 0.016759 0.004980 0.005320 0.003034
# 4 0.009697 -0.005747 0.004980 0.027019 0.008015 0.002415
# 5 0.015182 -0.007961 0.005320 0.008015 0.044086 0.014418
# 6 0.005990 0.007522 0.003034 0.002415 0.014418 0.050960
#
#
# Mechanical properties :
#
#
# Convention : Reuss Voigt Hill
#
# Bulk Modulus (GPa) = 32.69382 47.85920 40.27651
# Shear Modulus (GPa) = 19.58032 28.28019 23.93026
#
# Velocity S-wave (km/s) = 3.24695 3.90217 3.58954
# Velocity P-wave (km/s) = 5.62675 6.78760 6.23425
#
# Compressibility (1/GPa) = 0.03058682
#
# Stress axis : x y z
#
# Youngs Moduli (GPa) = 28.95475 39.14377 59.66913
#
# Poissons Ratio (x) = 0.67553 -0.02411
# Poissons Ratio (y) = 0.49969 0.37439
# Poissons Ratio (z) = -0.01170 0.24560
#
# Static dielectric constant tensor:
#      x y z
#    x 1.705050 -0.026400 -0.157710 
#    y -0.026400 1.688670 0.069210 
#    z -0.157710 0.069210 1.970550 
# 
# From -- ./inp_files/345398.got.cif
#   From: 2010.05.17/outbox.cif.g08.bks.cpg/sg2_173_cif.got.tgz:345398.got - 2010.06.03 11:33:40.
