data_PCOD9002522
_publ_section_title
;
Structure prediction by ZEFSAII (Michael W. Deem and Ramdas Pophale) SiO2 
 PCOD9002522
Probable space group: P -1
;
_chemical_formula_sum "Si O2"
_cell_formula_units_Z 16
_cell_length_a 11.964148
_cell_length_b 23.395316
_cell_length_c 23.345078
_cell_angle_alpha 168.527787
_cell_angle_beta 30.721729
_cell_angle_gamma 148.695366
_cell_volume 659.353680
_symmetry_space_group_name_H-M "P -1"
_symmetry_group_IT_number 2
_symmetry_cell_setting 'triclinic'
loop_
_space_group_symop_operation_xyz
x,y,z
-x,-y,-z
loop_
_atom_site_type_symbol
_atom_site_label
_atom_site_fract_x
_atom_site_fract_y
_atom_site_fract_z
Si Si1 0.967682 0.946768 0.782820
Si Si2 0.476337 0.112281 0.331178
Si Si3 0.468441 0.162346 0.774274
Si Si4 0.939134 0.191446 0.161049
Si Si5 0.412051 0.428958 0.185022
Si Si6 0.762516 0.681453 0.143265
Si Si7 0.074562 0.245179 0.563057
Si Si8 0.747020 0.439191 0.319490
O O1 0.216641 0.068002 0.775704
O O2 0.909877 0.613729 0.465300
O O3 0.939463 0.012813 0.926835
O O4 0.791966 0.111424 0.987043
O O5 0.693743 0.264996 0.352734
O O6 0.468390 0.269853 0.550454
O O7 0.262159 0.135750 0.411828
O O8 0.523092 0.791148 0.010854
O O9 0.592532 0.877252 0.440142
O O10 0.471183 0.305279 0.976430
O O11 0.596138 0.418016 0.930421
O O12 0.147957 0.436584 0.307284
O O13 0.000000 0.000000 0.000000
O O14 0.927789 0.959300 0.321858
O O15 0.934229 0.460776 0.872944
O O16 0.177505 0.437959 0.654772
O O17 0.500000 0.500000 0.500000
#
# Coordination Sequence:
#
# PCOD9002522 Si02
#       8
#     2   2   2   2   2   2   2   2
#     4  11  24  42  67  97 124 166 211 248 311 378
#     4  11  21  37  59  89 125 168 204 248 308 376
#     4  10  21  43  66  91 126 159 206 269 316 360
#     4   9  21  38  63  95 129 160 198 251 310 373
#     4  10  21  36  61  93 124 159 205 254 310 374
#     4  10  22  43  66  87 123 165 207 270 315 350
#     4  11  24  43  62  89 126 165 213 256 305 369
#     4  12  26  44  66  95 131 166 202 252 304 370
#
# _framework density 24.266186999999999
#
# number of rings (size 3 to 8) (size 9 to 14) (size 15 to 20)
#    0.000    1.500    0.000    4.500    0.000   10.000 
#    0.000   25.000    0.000    0.000    0.000    0.000 
#    0.000    0.000    0.000    0.000    0.000    0.000 
#
# Total GULP energy -89348.154820 kJ/mol
# GULP energy per Si atom -5584.259676 kJ/mol
# Density = 2.421096 g / cm^3
# Si number density = 24.266187 Si / 1000 Ang^3
#
#
#
# Elastic Constant Matrix: (Units=GPa)
#
#
# Indices 1 2 3 4 5 6 
#
# 1 88.8227 41.4755 18.5829 -6.7475 -8.6259 11.0733
# 2 41.4755 99.0310 44.6937 -18.3199 -22.9736 38.6957
# 3 18.5829 44.6937 141.7934 -5.4875 -9.8533 4.2666
# 4 -6.7475 -18.3199 -5.4875 39.2753 10.0069 -12.9560
# 5 -8.6259 -22.9736 -9.8533 10.0069 29.2603 15.6252
# 6 11.0733 38.6957 4.2666 -12.9560 15.6252 -7.8636
#
#
#
# Elastic Compliance Matrix: (Units=1/GPa)
#
#
# Indices 1 2 3 4 5 6 
#
# 1 0.013878 -0.005016 -0.000139 -0.000788 0.001197 -0.001539
# 2 -0.005016 0.008922 -0.002540 0.008248 -0.004769 0.012394
# 3 -0.000139 -0.002540 0.008030 -0.001279 0.002151 -0.001955
# 4 -0.000788 0.008248 -0.001279 0.027029 -0.000176 -0.006095
# 5 0.001197 -0.004769 0.002151 -0.000176 0.020583 0.020574
# 6 -0.001539 0.012394 -0.001955 -0.006095 0.020574 -0.018483
#
#
# Mechanical properties :
#
#
# Convention : Reuss Voigt Hill
#
# Bulk Modulus (GPa) = 64.76564 59.90569 62.33566
# Shear Modulus (GPa) = 62.11643 27.12741 44.62192
#
# Velocity S-wave (km/s) = 5.06493 3.34714 4.29284
# Velocity P-wave (km/s) = 7.80719 6.29907 7.09333
#
# Compressibility (1/GPa) = 0.01544029
#
# Stress axis : x y z
#
# Youngs Moduli (GPa) = 72.05626 112.08778 124.53295
#
# Poissons Ratio (x) = 0.56226 0.01726
# Poissons Ratio (y) = 0.36145 0.31629
# Poissons Ratio (z) = 0.00999 0.28468
#
# Static dielectric constant tensor:
#      x y z
#    x 1.922650 -0.065430 0.005880 
#    y -0.065430 2.014750 0.014370 
#    z 0.005880 0.014370 1.890090 
# 
# From -- ./inp_files/618868.got.cif
#   From: 2010.05.17/outbox.cif.g08.bks.cpg/sg2_310_cif.got.tgz:618868.got - 2010.06.03 11:33:40.
