data_PCOD9002131
_publ_section_title
;
Structure prediction by ZEFSAII (Michael W. Deem and Ramdas Pophale) SiO2 
 PCOD9002131
Probable space group: P -1
;
_chemical_formula_sum "Si O2"
_cell_formula_units_Z 10
_cell_length_a 12.741059
_cell_length_b 15.852840
_cell_length_c 5.927037
_cell_angle_alpha 64.138646
_cell_angle_beta 64.323210
_cell_angle_gamma 25.574411
_cell_volume 462.584038
_symmetry_space_group_name_H-M "P -1"
_symmetry_group_IT_number 2
_symmetry_cell_setting 'triclinic'
loop_
_space_group_symop_operation_xyz
x,y,z
-x,-y,-z
loop_
_atom_site_type_symbol
_atom_site_label
_atom_site_fract_x
_atom_site_fract_y
_atom_site_fract_z
Si Si1 0.134922 0.172191 0.547446
Si Si2 0.388820 0.476410 0.615494
Si Si3 0.709997 0.784507 0.956971
Si Si4 0.124956 0.563574 0.138849
Si Si5 0.520740 0.760715 0.444848
O O1 0.881239 0.331972 0.468046
O O2 0.061814 0.231074 0.807338
O O3 0.322806 0.961437 0.530861
O O4 0.233821 0.205989 0.344652
O O5 0.500000 0.500000 0.500000
O O6 0.545218 0.295070 0.524372
O O7 0.334227 0.470459 0.917415
O O8 0.606372 0.756538 0.146460
O O9 0.956791 0.622155 0.061795
O O10 0.500000 0.000000 0.000000
O O11 0.254346 0.413070 0.389964
#
# Coordination Sequence:
#
# PCOD9002131 Si02
#       5
#     2   2   2   2   2
#     4   9  21  38  57  85 114 143 182 224 273 332
#     4  10  23  41  56  77 112 148 187 234 275 317
#     4   9  19  35  56  85 119 144 173 221 277 333
#     4  10  21  36  58  82 111 146 184 227 272 326
#     4  10  21  36  58  85 112 147 183 220 275 331
#
# _framework density 21.617694
#
# number of rings (size 3 to 8) (size 9 to 14) (size 15 to 20)
#    0.000    2.400    0.000    0.600    0.000   20.800 
#    0.000    2.000    0.000    0.000    0.000    0.000 
#    0.000    0.000    0.000    0.000    0.000    0.000 
#
# Total GULP energy -55818.915451 kJ/mol
# GULP energy per Si atom -5581.891545 kJ/mol
# Density = 2.156849 g / cm^3
# Si number density = 21.617694 Si / 1000 Ang^3
#
#
#
# Elastic Constant Matrix: (Units=GPa)
#
#
# Indices 1 2 3 4 5 6 
#
# 1 83.6189 19.2124 21.2570 -6.7184 -18.6472 26.0432
# 2 19.2124 120.6927 20.5806 8.8886 5.6286 32.6905
# 3 21.2570 20.5806 54.0667 4.8663 -6.0369 12.0243
# 4 -6.7184 8.8886 4.8663 30.9269 6.4391 6.5313
# 5 -18.6472 5.6286 -6.0369 6.4391 28.2547 1.7654
# 6 26.0432 32.6905 12.0243 6.5313 1.7654 35.6627
#
#
#
# Elastic Compliance Matrix: (Units=1/GPa)
#
#
# Indices 1 2 3 4 5 6 
#
# 1 0.021301 0.000774 -0.004089 0.005905 0.012722 -0.016597
# 2 0.000774 0.011413 -0.002577 -0.000249 -0.001630 -0.010032
# 3 -0.004089 -0.002577 0.022198 -0.004054 0.003580 -0.001571
# 4 0.005905 -0.000249 -0.004054 0.037300 -0.004838 -0.009309
# 5 0.012722 -0.001630 0.003580 -0.004838 0.046632 -0.010425
# 6 -0.016597 -0.010032 -0.001571 -0.009309 -0.010425 0.052107
#
#
# Mechanical properties :
#
#
# Convention : Reuss Voigt Hill
#
# Bulk Modulus (GPa) = 23.18698 42.27537 32.73118
# Shear Modulus (GPa) = 23.02942 32.12407 27.57675
#
# Velocity S-wave (km/s) = 3.26744 3.85906 3.57551
# Velocity P-wave (km/s) = 4.99841 6.28131 5.67622
#
# Compressibility (1/GPa) = 0.04312766
#
# Stress axis : x y z
#
# Youngs Moduli (GPa) = 46.94516 87.61632 45.04847
#
# Poissons Ratio (x) = -0.06780 0.18422
# Poissons Ratio (y) = -0.03633 0.11610
# Poissons Ratio (z) = 0.19197 0.22581
#
# Static dielectric constant tensor:
#      x y z
#    x 1.773110 0.043320 0.023110 
#    y 0.043320 1.825340 -0.002230 
#    z 0.023110 -0.002230 1.835320 
# 
# From -- ./inp_files/1932.got.cif
#   From: 2010.05.17/outbox.cif.g08.bks.cpg/sg2_1_cif.got.tgz:1932.got - 2010.06.03 11:33:40.
