data_PCOD9002082
_publ_section_title
;
Structure prediction by ZEFSAII (Michael W. Deem and Ramdas Pophale) SiO2 
 PCOD9002082
Probable space group: P -1
;
_chemical_formula_sum "Si O2"
_cell_formula_units_Z 14
_cell_length_a 12.443877
_cell_length_b 7.981801
_cell_length_c 10.862438
_cell_angle_alpha 55.023358
_cell_angle_beta 54.862699
_cell_angle_gamma 62.218451
_cell_volume 707.859548
_symmetry_space_group_name_H-M "P -1"
_symmetry_group_IT_number 2
_symmetry_cell_setting 'triclinic'
loop_
_space_group_symop_operation_xyz
x,y,z
-x,-y,-z
loop_
_atom_site_type_symbol
_atom_site_label
_atom_site_fract_x
_atom_site_fract_y
_atom_site_fract_z
Si Si1 0.583002 0.677165 0.149819
Si Si2 0.998704 0.823720 0.916218
Si Si3 0.591543 0.567233 0.521634
Si Si4 0.457436 0.001138 0.735521
Si Si5 0.196557 0.801797 0.024443
Si Si6 0.170765 0.524331 0.764088
Si Si7 0.375714 0.381164 0.127096
O O1 0.460821 0.551892 0.281859
O O2 0.548462 0.871113 0.184482
O O3 0.713465 0.527610 0.185998
O O4 0.619933 0.719373 0.969677
O O5 0.910578 0.660215 0.091768
O O6 0.111296 0.818920 0.948052
O O7 0.070752 0.735439 0.779847
O O8 0.899202 0.046423 0.882479
O O9 0.500000 0.500000 0.500000
O O10 0.556822 0.817620 0.433570
O O11 0.744930 0.488717 0.411720
O O12 0.588302 0.816337 0.722782
O O13 0.327667 0.896745 0.868583
O O14 0.245502 0.566188 0.140048
O O15 0.500000 0.500000 0.000000
#
# Coordination Sequence:
#
# PCOD9002082 Si02
#       7
#     2   2   2   2   2   2   2
#     4  10  17  33  51  73  99 129 163 203 243 287
#     4  10  17  27  49  70 105 126 157 209 239 276
#     4   8  16  30  52  71 100 119 167 207 236 287
#     4   9  17  32  49  73 100 127 160 203 239 292
#     4  10  18  28  43  73 107 125 155 200 249 282
#     4   9  16  29  48  73  97 124 165 200 246 277
#     4  10  20  31  47  72 106 126 161 201 244 294
#
# _framework density 19.777932
#
# number of rings (size 3 to 8) (size 9 to 14) (size 15 to 20)
#    0.000    2.857    4.286    0.429    0.000    0.000 
#    0.000    2.857    0.000    0.000    0.000   38.000 
#    0.000    0.000    0.000    0.000    0.000    0.000 
#
# Total GULP energy -77959.948102 kJ/mol
# GULP energy per Si atom -5568.567722 kJ/mol
# Density = 1.973292 g / cm^3
# Si number density = 19.777932 Si / 1000 Ang^3
#
#
#
# Elastic Constant Matrix: (Units=GPa)
#
#
# Indices 1 2 3 4 5 6 
#
# 1 31.8072 16.9311 24.0680 14.8019 -9.6444 -6.1931
# 2 16.9311 134.5686 38.7179 1.5075 -4.0574 -29.1068
# 3 24.0680 38.7179 66.1487 -6.9620 -13.0038 -7.2184
# 4 14.8019 1.5075 -6.9620 -19.2722 7.0609 4.0564
# 5 -9.6444 -4.0574 -13.0038 7.0609 17.4483 -1.4575
# 6 -6.1931 -29.1068 -7.2184 4.0564 -1.4575 29.0327
#
#
#
# Elastic Compliance Matrix: (Units=1/GPa)
#
#
# Indices 1 2 3 4 5 6 
#
# 1 0.026659 -0.002039 -0.006152 0.022504 0.000485 -0.001007
# 2 -0.002039 0.010937 -0.004934 0.002079 -0.002360 0.008894
# 3 -0.006152 -0.004934 0.022621 -0.007394 0.015401 0.001172
# 4 0.022504 0.002079 -0.007394 -0.023372 0.017639 0.009197
# 5 0.000485 -0.002360 0.015401 0.017639 0.061555 0.002193
# 6 -0.001007 0.008894 0.001172 0.009197 0.002193 0.042262
#
#
# Mechanical properties :
#
#
# Convention : Reuss Voigt Hill
#
# Bulk Modulus (GPa) = 29.44146 43.55095 36.49620
# Shear Modulus (GPa) = 28.05316 15.62893 21.84104
#
# Velocity S-wave (km/s) = 3.77026 2.81414 3.32673
# Velocity P-wave (km/s) = 5.81992 5.71200 5.76621
#
# Compressibility (1/GPa) = 0.03396571
#
# Stress axis : x y z
#
# Youngs Moduli (GPa) = 37.51108 91.43609 44.20679
#
# Poissons Ratio (x) = 0.18648 0.27196
# Poissons Ratio (y) = 0.07650 0.21811
# Poissons Ratio (z) = 0.23077 0.45113
#
# Static dielectric constant tensor:
#      x y z
#    x 1.718270 0.022660 0.020920 
#    y 0.022660 1.771530 0.012340 
#    z 0.020920 0.012340 1.728810 
# 
# From -- ./inp_files/252014.got.cif
#   From: 2010.05.17/outbox.cif.g08.bks.cpg/sg2_127_cif.got.tgz:252014.got - 2010.06.03 11:33:40.
