data_PCOD9002481
_publ_section_title
;
Structure prediction by ZEFSAII (Michael W. Deem and Ramdas Pophale) SiO2 
 PCOD9002481
Probable space group: P -1
;
_chemical_formula_sum "Si O2"
_cell_formula_units_Z 16
_cell_length_a 14.902152
_cell_length_b 10.063729
_cell_length_c 11.781610
_cell_angle_alpha 49.626491
_cell_angle_beta 109.514888
_cell_angle_gamma 141.684236
_cell_volume 775.745820
_symmetry_space_group_name_H-M "P -1"
_symmetry_group_IT_number 2
_symmetry_cell_setting 'triclinic'
loop_
_space_group_symop_operation_xyz
x,y,z
-x,-y,-z
loop_
_atom_site_type_symbol
_atom_site_label
_atom_site_fract_x
_atom_site_fract_y
_atom_site_fract_z
Si Si1 0.024344 0.827025 0.096352
Si Si2 0.782861 0.819232 0.414030
Si Si3 0.598805 0.241870 0.583432
Si Si4 0.141240 0.845171 0.347852
Si Si5 0.142507 0.810707 0.940190
Si Si6 0.117493 0.129435 0.339263
Si Si7 0.659440 0.218230 0.875792
Si Si8 0.719141 0.243084 0.414285
O O1 0.866096 0.508248 0.252632
O O2 0.150919 0.911257 0.183716
O O3 0.072472 0.848088 0.978078
O O4 0.000000 0.000000 0.000000
O O5 0.635111 0.490169 0.500765
O O6 0.813228 0.891168 0.519209
O O7 0.777572 0.980467 0.247063
O O8 0.940027 0.935105 0.388407
O O9 0.633307 0.192272 0.743256
O O10 0.706238 0.350037 0.460195
O O11 0.428931 0.961682 0.616812
O O12 0.274948 0.937077 0.421364
O O13 0.000000 0.500000 0.500000
O O14 0.116555 0.999792 0.305011
O O15 0.256518 0.840574 0.030384
O O16 0.000000 0.500000 0.000000
O O17 0.226156 0.458728 0.212140
O O18 0.500000 0.000000 0.000000
#
# Coordination Sequence:
#
# PCOD9002481 Si02
#       8
#     2   2   2   2   2   2   2   2
#     4  11  24  40  67  99 132 171 221 277 330 393
#     4  10  21  38  63  87 127 161 221 260 321 384
#     4  10  22  42  62  92 127 175 217 268 334 392
#     4  10  21  36  61  87 120 158 220 263 319 375
#     4  12  25  40  67  97 132 172 221 271 328 393
#     4  10  21  39  63  91 121 174 213 272 316 393
#     4  11  26  43  65  96 139 175 216 274 340 393
#     4  10  22  39  66  89 128 170 221 272 325 392
#
# _framework density 20.625312000000001
#
# number of rings (size 3 to 8) (size 9 to 14) (size 15 to 20)
#    0.000    1.500    1.250    3.750    5.250    1.000 
#    0.000    2.500    0.000    6.000    0.000    0.000 
#    0.000    0.000    0.000    0.000    0.000    0.000 
#
# Total GULP energy -89234.607593 kJ/mol
# GULP energy per Si atom -5577.162975 kJ/mol
# Density = 2.057837 g / cm^3
# Si number density = 20.625312 Si / 1000 Ang^3
#
#
#
# Elastic Constant Matrix: (Units=GPa)
#
#
# Indices 1 2 3 4 5 6 
#
# 1 48.8776 15.8724 4.0379 -2.9740 8.7817 -3.0425
# 2 15.8724 89.0959 24.1705 6.3884 6.7508 -3.0023
# 3 4.0379 24.1705 102.4737 11.7548 24.4594 9.1228
# 4 -2.9740 6.3884 11.7548 14.7003 8.0546 0.6787
# 5 8.7817 6.7508 24.4594 8.0546 36.2966 3.4149
# 6 -3.0425 -3.0023 9.1228 0.6787 3.4149 25.6455
#
#
#
# Elastic Compliance Matrix: (Units=1/GPa)
#
#
# Indices 1 2 3 4 5 6 
#
# 1 0.024149 -0.004508 0.000539 0.010667 -0.008010 0.002930
# 2 -0.004508 0.013129 -0.002861 -0.005277 0.001564 0.001951
# 3 0.000539 -0.002861 0.012973 -0.005091 -0.006850 -0.003839
# 4 0.010667 -0.005277 -0.005091 0.086017 -0.017493 0.002512
# 5 -0.008010 0.001564 -0.006850 -0.017493 0.037971 -0.002924
# 6 0.002930 0.001951 -0.003839 0.002512 -0.002924 0.041258
#
#
# Mechanical properties :
#
#
# Convention : Reuss Voigt Hill
#
# Bulk Modulus (GPa) = 27.32823 36.51208 31.92015
# Shear Modulus (GPa) = 20.71670 28.41958 24.56814
#
# Velocity S-wave (km/s) = 3.17271 3.71603 3.45507
# Velocity P-wave (km/s) = 5.16721 6.01272 5.60593
#
# Compressibility (1/GPa) = 0.03659220
#
# Stress axis : x y z
#
# Youngs Moduli (GPa) = 41.40925 76.16966 77.08454
#
# Poissons Ratio (x) = 0.34335 -0.04156
# Poissons Ratio (y) = 0.18666 0.22052
# Poissons Ratio (z) = -0.02233 0.21790
#
# Static dielectric constant tensor:
#      x y z
#    x 1.765120 0.027480 0.000810 
#    y 0.027480 1.790350 0.032380 
#    z 0.000810 0.032380 1.740640 
# 
# From -- ./inp_files/227726.got.cif
#   From: 2010.05.17/outbox.cif.g08.bks.cpg/sg2_114_cif.got.tgz:227726.got - 2010.06.03 11:33:40.
