data_PCOD9002712
_publ_section_title
;
Structure prediction by ZEFSAII (Michael W. Deem and Ramdas Pophale) SiO2 
 PCOD9002712
Probable space group: P -1
;
_chemical_formula_sum "Si O2"
_cell_formula_units_Z 16
_cell_length_a 8.780297
_cell_length_b 17.115765
_cell_length_c 17.222340
_cell_angle_alpha 157.076826
_cell_angle_beta 46.678271
_cell_angle_gamma 135.732964
_cell_volume 700.289689
_symmetry_space_group_name_H-M "P -1"
_symmetry_group_IT_number 2
_symmetry_cell_setting 'triclinic'
loop_
_space_group_symop_operation_xyz
x,y,z
-x,-y,-z
loop_
_atom_site_type_symbol
_atom_site_label
_atom_site_fract_x
_atom_site_fract_y
_atom_site_fract_z
Si Si1 0.208906 0.349460 0.733954
Si Si2 0.287349 0.666833 0.135855
Si Si3 0.289368 0.417387 0.598363
Si Si4 0.453219 0.882218 0.582317
Si Si5 0.190885 0.563445 0.250324
Si Si6 0.455227 0.796421 0.778053
Si Si7 0.035747 0.749720 0.704978
Si Si8 0.994623 0.847217 0.968715
O O1 0.306494 0.469310 0.730467
O O2 0.316132 0.162511 0.526153
O O3 0.948290 0.293114 0.761944
O O4 0.284009 0.486442 0.909975
O O5 0.290167 0.596479 0.159600
O O6 0.483368 0.876190 0.243241
O O7 0.436159 0.614432 0.680608
O O8 0.373711 0.223494 0.364910
O O9 0.041146 0.387301 0.631783
O O10 0.330423 0.722665 0.411273
O O11 0.293865 0.833443 0.667730
O O12 0.134309 0.322115 0.078723
O O13 0.215974 0.781688 0.815738
O O14 0.500000 0.000000 0.000000
O O15 0.897676 0.797418 0.870570
O O16 0.000000 0.500000 0.500000
O O17 0.963565 0.902924 0.805604
#
# Coordination Sequence:
#
# PCOD9002712 Si02
#       8
#     2   2   2   2   2   2   2   2
#     4  10  23  44  67  92 131 174 228 277 329 403
#     4  10  24  46  67  95 132 177 227 279 335 397
#     4   9  21  41  62  92 136 173 221 271 331 392
#     4  12  24  39  69  99 130 177 224 279 341 396
#     4  10  22  44  65  98 138 174 220 286 335 399
#     4  10  21  36  63  96 125 175 219 269 324 397
#     4  11  24  41  64  95 135 173 214 273 335 403
#     4  10  23  42  62  95 132 174 223 268 334 403
#
# _framework density 22.847688000000002
#
# number of rings (size 3 to 8) (size 9 to 14) (size 15 to 20)
#    0.000    1.750    1.250    1.500    3.500    4.500 
#    2.250    2.500    0.000    0.000    0.000    0.000 
#    0.000    0.000    0.000    0.000    0.000    0.000 
#
# Total GULP energy -89169.208782 kJ/mol
# GULP energy per Si atom -5573.075549 kJ/mol
# Density = 2.279569 g / cm^3
# Si number density = 22.847688 Si / 1000 Ang^3
#
#
#
# Elastic Constant Matrix: (Units=GPa)
#
#
# Indices 1 2 3 4 5 6 
#
# 1 41.3985 28.3135 26.6377 1.3623 0.8870 -10.7987
# 2 28.3135 158.9449 67.0422 12.1794 1.5163 -21.8102
# 3 26.6377 67.0422 105.4211 -0.8651 -20.5424 -6.3131
# 4 1.3623 12.1794 -0.8651 40.6384 -2.1865 -5.2698
# 5 0.8870 1.5163 -20.5424 -2.1865 36.8184 -6.0381
# 6 -10.7987 -21.8102 -6.3131 -5.2698 -6.0381 27.8443
#
#
#
# Elastic Compliance Matrix: (Units=1/GPa)
#
#
# Indices 1 2 3 4 5 6 
#
# 1 0.032283 -0.001366 -0.007396 0.000167 -0.003349 0.009078
# 2 -0.001366 0.010177 -0.006535 -0.002718 -0.003422 0.004704
# 3 -0.007396 -0.006535 0.017434 0.002958 0.010141 -0.001275
# 4 0.000167 -0.002718 0.002958 0.026275 0.004050 0.004458
# 5 -0.003349 -0.003422 0.010141 0.004050 0.034352 0.006536
# 6 0.009078 0.004704 -0.001275 0.004458 0.006536 0.045091
#
#
# Mechanical properties :
#
#
# Convention : Reuss Voigt Hill
#
# Bulk Modulus (GPa) = 34.12822 61.08346 47.60584
# Shear Modulus (GPa) = 24.27490 33.31165 28.79327
#
# Velocity S-wave (km/s) = 3.26309 3.82250 3.55382
# Velocity P-wave (km/s) = 5.40062 6.80258 6.14174
#
# Compressibility (1/GPa) = 0.02930126
#
# Stress axis : x y z
#
# Youngs Moduli (GPa) = 30.97594 98.25634 57.35856
#
# Poissons Ratio (x) = 0.13424 0.42422
# Poissons Ratio (y) = 0.04232 0.37481
# Poissons Ratio (z) = 0.22910 0.64206
#
# Static dielectric constant tensor:
#      x y z
#    x 2.581330 0.130400 -0.039300 
#    y 0.130400 1.885240 -0.036360 
#    z -0.039300 -0.036360 1.919130 
# 
# From -- ./inp_files/562126.got.cif
#   From: 2010.05.17/outbox.cif.g08.bks.cpg/sg2_282_cif.got.tgz:562126.got - 2010.06.03 11:33:40.
