data_PCOD9002766
_publ_section_title
;
Structure prediction by ZEFSAII (Michael W. Deem and Ramdas Pophale) SiO2 
 PCOD9002766
Probable space group: P -1
;
_chemical_formula_sum "Si O2"
_cell_formula_units_Z 16
_cell_length_a 9.436406
_cell_length_b 26.310526
_cell_length_c 9.200657
_cell_angle_alpha 142.092041
_cell_angle_beta 39.005537
_cell_angle_gamma 144.349647
_cell_volume 756.746933
_symmetry_space_group_name_H-M "P -1"
_symmetry_group_IT_number 2
_symmetry_cell_setting 'triclinic'
loop_
_space_group_symop_operation_xyz
x,y,z
-x,-y,-z
loop_
_atom_site_type_symbol
_atom_site_label
_atom_site_fract_x
_atom_site_fract_y
_atom_site_fract_z
Si Si1 0.746416 0.900644 0.525389
Si Si2 0.773286 0.767323 0.966414
Si Si3 0.742972 0.430770 0.642654
Si Si4 0.344768 0.767339 0.134785
Si Si5 0.684407 0.091029 0.293606
Si Si6 0.483411 0.126762 0.060719
Si Si7 0.784939 0.614610 0.118241
Si Si8 0.033908 0.698725 0.798818
O O1 0.739168 0.815788 0.247845
O O2 0.499967 0.909251 0.688974
O O3 0.726355 0.883312 0.674393
O O4 0.000000 0.000000 0.500000
O O5 0.508723 0.727719 0.996820
O O6 0.015598 0.850636 0.868671
O O7 0.865658 0.696284 0.790916
O O8 0.483011 0.385408 0.647541
O O9 0.792078 0.349402 0.482801
O O10 0.000000 0.500000 0.500000
O O11 0.723932 0.505299 0.933936
O O12 0.351660 0.851104 0.416472
O O13 0.041957 0.687261 0.166670
O O14 0.486867 0.814597 0.975995
O O15 0.588056 0.981135 0.160120
O O16 0.764919 0.192080 0.062629
O O17 0.861189 0.646315 0.960075
#
# Coordination Sequence:
#
# PCOD9002766 Si02
#       8
#     2   2   2   2   2   2   2   2
#     4  11  21  37  61  84 120 170 226 269 298 353
#     4  11  23  40  57  91 132 171 207 255 314 370
#     4   9  19  38  67  95 120 149 204 262 310 368
#     4  10  25  40  60  93 131 168 202 257 321 375
#     4  11  22  40  57  85 133 172 211 259 310 363
#     4  11  21  40  60  90 120 169 227 258 300 357
#     4   9  20  41  65  95 121 153 205 258 314 374
#     4  10  21  36  64  93 118 161 214 258 307 363
#
# _framework density 21.143131
#
# number of rings (size 3 to 8) (size 9 to 14) (size 15 to 20)
#    0.000    1.750    2.500    1.500    1.750    3.500 
#    4.500    0.625    0.000    7.500    0.000    0.000 
#    0.000    0.000    0.000    0.000    0.000    0.000 
#
# Total GULP energy -89371.691361 kJ/mol
# GULP energy per Si atom -5585.730710 kJ/mol
# Density = 2.109501 g / cm^3
# Si number density = 21.143131 Si / 1000 Ang^3
#
#
#
# Elastic Constant Matrix: (Units=GPa)
#
#
# Indices 1 2 3 4 5 6 
#
# 1 147.7575 53.0361 55.7952 7.3696 -22.9950 9.2280
# 2 53.0361 77.2729 24.8812 -2.7867 -5.5647 28.5379
# 3 55.7952 24.8812 65.4854 -3.9080 -11.3212 5.1067
# 4 7.3696 -2.7867 -3.9080 31.3301 -5.0123 -3.4591
# 5 -22.9950 -5.5647 -11.3212 -5.0123 39.2007 -7.8984
# 6 9.2280 28.5379 5.1067 -3.4591 -7.8984 17.3025
#
#
#
# Elastic Compliance Matrix: (Units=1/GPa)
#
#
# Indices 1 2 3 4 5 6 
#
# 1 0.016006 -0.018537 -0.007137 -0.001516 0.010249 0.028519
# 2 -0.018537 0.066742 -0.005842 -0.007046 -0.026554 -0.112002
# 3 -0.007137 -0.005842 0.023971 0.005955 0.004616 0.009665
# 4 -0.001516 -0.007046 0.005955 0.036240 0.008892 0.021977
# 5 0.010249 -0.026554 0.004616 0.008892 0.041881 0.057865
# 6 0.028519 -0.112002 0.009665 0.021977 0.057865 0.255272
#
#
# Mechanical properties :
#
#
# Convention : Reuss Voigt Hill
#
# Bulk Modulus (GPa) = 22.88990 61.99343 42.44166
# Shear Modulus (GPa) = 9.65800 28.02020 18.83910
#
# Velocity S-wave (km/s) = 2.13959 3.64436 2.98825
# Velocity P-wave (km/s) = 4.11746 6.86244 5.65891
#
# Compressibility (1/GPa) = 0.04368740
#
# Stress axis : x y z
#
# Youngs Moduli (GPa) = 62.47709 14.98301 41.71732
#
# Poissons Ratio (x) = 0.27773 0.29774
# Poissons Ratio (y) = 1.15811 0.24372
# Poissons Ratio (z) = 0.44590 0.08753
#
# Static dielectric constant tensor:
#      x y z
#    x 1.773080 -0.007340 -0.020700 
#    y -0.007340 1.785710 -0.013190 
#    z -0.020700 -0.013190 1.820430 
# 
# From -- ./inp_files/52451.got.cif
#   From: 2010.05.17/outbox.cif.g08.bks.cpg/sg2_27_cif.got.tgz:52451.got - 2010.06.03 11:33:40.
