data_PCOD9002817
_publ_section_title
;
Structure prediction by ZEFSAII (Michael W. Deem and Ramdas Pophale) SiO2 
 PCOD9002817
Probable space group: P -1
;
_chemical_formula_sum "Si O2"
_cell_formula_units_Z 14
_cell_length_a 8.830747
_cell_length_b 6.948897
_cell_length_c 13.057717
_cell_angle_alpha 59.019913
_cell_angle_beta 72.260049
_cell_angle_gamma 61.682995
_cell_volume 602.815491
_symmetry_space_group_name_H-M "P -1"
_symmetry_group_IT_number 2
_symmetry_cell_setting 'triclinic'
loop_
_space_group_symop_operation_xyz
x,y,z
-x,-y,-z
loop_
_atom_site_type_symbol
_atom_site_label
_atom_site_fract_x
_atom_site_fract_y
_atom_site_fract_z
Si Si1 0.766443 0.539538 0.135628
Si Si2 0.290640 0.511113 0.608811
Si Si3 0.417940 0.621706 0.263332
Si Si4 0.824723 0.553821 0.751200
Si Si5 0.095858 0.266139 0.617039
Si Si6 0.126837 0.955730 0.365656
Si Si7 0.045329 0.747822 0.001819
O O1 0.803155 0.483164 0.263982
O O2 0.558546 0.655107 0.149262
O O3 0.867671 0.706842 0.035521
O O4 0.849751 0.302026 0.112180
O O5 0.476082 0.477248 0.625729
O O6 0.273919 0.286540 0.609041
O O7 0.199357 0.750172 0.494925
O O8 0.344122 0.440388 0.274966
O O9 0.256424 0.857669 0.268589
O O10 0.833168 0.467875 0.889446
O O11 0.979577 0.337063 0.722842
O O12 0.852620 0.802525 0.668545
O O13 0.000000 0.500000 0.500000
O O14 0.056165 0.053518 0.628506
O O15 0.000000 0.000000 0.000000
#
# Coordination Sequence:
#
# PCOD9002817 Si02
#       7
#     2   2   2   2   2   2   2
#     4   9  22  42  62  91 116 161 212 246 305 366
#     4   9  18  41  60  93 129 160 206 241 300 372
#     4   9  21  39  60  94 128 161 197 244 310 369
#     4  11  22  40  58  94 124 159 207 251 307 365
#     4   9  19  37  58  88 121 165 204 246 295 356
#     4  10  21  36  65  91 132 164 193 254 302 362
#     4  11  24  45  64  83 119 162 210 263 304 356
#
# _framework density 23.224353000000001
#
# number of rings (size 3 to 8) (size 9 to 14) (size 15 to 20)
#    0.857    1.429    1.429    0.429    0.000    9.143 
#    2.571    2.857    0.000    0.000    0.000    0.000 
#    0.000    0.000    0.000    0.000    0.000    0.000 
#
# Total GULP energy -78042.963080 kJ/mol
# GULP energy per Si atom -5574.497363 kJ/mol
# Density = 2.317149 g / cm^3
# Si number density = 23.224353 Si / 1000 Ang^3
#
#
#
# Elastic Constant Matrix: (Units=GPa)
#
#
# Indices 1 2 3 4 5 6 
#
# 1 173.8173 49.6777 18.1070 -1.0999 3.6061 46.6720
# 2 49.6777 102.0626 9.5921 17.9954 -14.9764 28.6312
# 3 18.1070 9.5921 79.2782 13.3317 0.7036 -1.2403
# 4 -1.0999 17.9954 13.3317 32.9263 -6.7225 -4.9249
# 5 3.6061 -14.9764 0.7036 -6.7225 30.8831 11.6923
# 6 46.6720 28.6312 -1.2403 -4.9249 11.6923 31.9139
#
#
#
# Elastic Compliance Matrix: (Units=1/GPa)
#
#
# Indices 1 2 3 4 5 6 
#
# 1 0.010896 0.002155 -0.002938 -0.001223 0.007493 -0.020917
# 2 0.002155 0.024395 -0.001967 -0.013227 0.022089 -0.035248
# 3 -0.002938 -0.001967 0.014482 -0.004734 -0.004879 0.007681
# 4 -0.001223 -0.013227 -0.004734 0.041649 -0.005377 0.021868
# 5 0.007493 0.022089 -0.004879 -0.005377 0.061762 -0.054422
# 6 -0.020917 -0.035248 0.007681 0.021868 -0.054422 0.117158
#
#
# Mechanical properties :
#
#
# Convention : Reuss Voigt Hill
#
# Bulk Modulus (GPa) = 22.58607 56.65683 39.62145
# Shear Modulus (GPa) = 17.20577 37.66341 27.43459
#
# Velocity S-wave (km/s) = 2.72481 4.03143 3.44071
# Velocity P-wave (km/s) = 4.43235 6.79104 5.73428
#
# Compressibility (1/GPa) = 0.04427508
#
# Stress axis : x y z
#
# Youngs Moduli (GPa) = 91.77300 40.99170 69.04961
#
# Poissons Ratio (x) = -0.08835 0.20283
# Poissons Ratio (y) = -0.19780 0.13583
# Poissons Ratio (z) = 0.26959 0.08064
#
# Static dielectric constant tensor:
#      x y z
#    x 1.961060 -0.023770 -0.009740 
#    y -0.023770 1.880830 0.046030 
#    z -0.009740 0.046030 2.050800 
# 
# From -- ./inp_files/486891.got.cif
#   From: 2010.05.17/outbox.cif.g08.bks.cpg/sg2_244_cif.got.tgz:486891.got - 2010.06.03 11:33:40.
