data_PCOD9002701
_publ_section_title
;
Structure prediction by ZEFSAII (Michael W. Deem and Ramdas Pophale) SiO2 
 PCOD9002701
Probable space group: P -1
;
_chemical_formula_sum "Si O2"
_cell_formula_units_Z 14
_cell_length_a 10.022671
_cell_length_b 12.199148
_cell_length_c 22.935110
_cell_angle_alpha 156.272611
_cell_angle_beta 34.273374
_cell_angle_gamma 135.012216
_cell_volume 620.248870
_symmetry_space_group_name_H-M "P -1"
_symmetry_group_IT_number 2
_symmetry_cell_setting 'triclinic'
loop_
_space_group_symop_operation_xyz
x,y,z
-x,-y,-z
loop_
_atom_site_type_symbol
_atom_site_label
_atom_site_fract_x
_atom_site_fract_y
_atom_site_fract_z
Si Si1 0.656108 0.081618 0.176242
Si Si2 0.428056 0.355132 0.146461
Si Si3 0.735435 0.130667 0.473815
Si Si4 0.855329 0.936626 0.607980
Si Si5 0.029225 0.795114 0.107984
Si Si6 0.769218 0.424043 0.787062
Si Si7 0.063192 0.972438 0.059907
O O1 0.370861 0.155852 0.325040
O O2 0.735538 0.742344 0.974823
O O3 0.763854 0.193836 0.134026
O O4 0.815506 0.135897 0.199458
O O5 0.363356 0.545208 0.318867
O O6 0.420034 0.548597 0.185429
O O7 0.222148 0.182759 0.128660
O O8 0.696264 0.175365 0.965488
O O9 0.943653 0.033564 0.401289
O O10 0.500000 0.000000 0.500000
O O11 0.852683 0.040550 0.325426
O O12 0.984200 0.719860 0.406342
O O13 0.752726 0.223280 0.749282
O O14 0.997148 0.796727 0.051287
O O15 0.000000 0.500000 0.000000
#
# Coordination Sequence:
#
# PCOD9002701 Si02
#       7
#     2   2   2   2   2   2   2
#     4  10  21  42  64  87 127 167 207 254 316 371
#     4  10  22  44  61  92 133 161 207 263 308 376
#     4  11  23  40  62  94 126 163 210 258 316 370
#     4  10  21  36  63  94 125 163 210 257 313 367
#     4  12  25  40  66  92 125 168 212 258 313 373
#     4   9  20  36  63  93 126 160 208 263 305 366
#     4  10  24  42  64  94 127 167 211 257 315 377
#
# _framework density 22.571584000000001
#
# number of rings (size 3 to 8) (size 9 to 14) (size 15 to 20)
#    0.000    1.714    1.429    2.571    4.000    1.714 
#    0.000   15.714    0.000    0.000    0.000    0.000 
#    0.000    0.000    0.000    0.000    0.000    0.000 
#
# Total GULP energy -78194.155911 kJ/mol
# GULP energy per Si atom -5585.296851 kJ/mol
# Density = 2.252021 g / cm^3
# Si number density = 22.571584 Si / 1000 Ang^3
#
#
#
# Elastic Constant Matrix: (Units=GPa)
#
#
# Indices 1 2 3 4 5 6 
#
# 1 95.6016 55.9911 18.8980 -30.7088 -2.3358 6.0049
# 2 55.9911 82.1324 30.0837 -27.6005 7.4215 -11.0962
# 3 18.8980 30.0837 75.0055 -30.7718 -0.2587 13.4579
# 4 -30.7088 -27.6005 -30.7718 35.7484 5.0369 1.7976
# 5 -2.3358 7.4215 -0.2587 5.0369 24.6445 -3.6046
# 6 6.0049 -11.0962 13.4579 1.7976 -3.6046 49.9942
#
#
#
# Elastic Compliance Matrix: (Units=1/GPa)
#
#
# Indices 1 2 3 4 5 6 
#
# 1 0.023165 -0.014950 0.008019 0.015359 0.002379 -0.008640
# 2 -0.014950 0.028480 -0.008210 0.002905 -0.009276 0.009554
# 3 0.008019 -0.008210 0.026605 0.024444 -0.003100 -0.011050
# 4 0.015359 0.002905 0.024444 0.067061 -0.014512 -0.011238
# 5 0.002379 -0.009276 -0.003100 -0.014512 0.046879 0.002392
# 6 -0.008640 0.009554 -0.011050 -0.011238 0.002392 0.026712
#
#
# Mechanical properties :
#
#
# Convention : Reuss Voigt Hill
#
# Bulk Modulus (GPa) = 20.84746 51.40944 36.12845
# Shear Modulus (GPa) = 18.85556 31.92852 25.39204
#
# Velocity S-wave (km/s) = 2.89341 3.76512 3.35768
# Velocity P-wave (km/s) = 4.51870 6.45966 5.57431
#
# Compressibility (1/GPa) = 0.04796747
#
# Stress axis : x y z
#
# Youngs Moduli (GPa) = 43.16811 35.11245 37.58674
#
# Poissons Ratio (x) = 0.52495 -0.30143
# Poissons Ratio (y) = 0.64538 0.30860
# Poissons Ratio (z) = -0.34619 0.28829
#
# Static dielectric constant tensor:
#      x y z
#    x 1.884920 -0.019740 0.012410 
#    y -0.019740 1.916300 0.020740 
#    z 0.012410 0.020740 1.843890 
# 
# From -- ./inp_files/474434.got.cif
#   From: 2010.05.17/outbox.cif.g08.bks.cpg/sg2_238_cif.got.tgz:474434.got - 2010.06.03 11:33:40.
