data_PCOD9002206
_publ_section_title
;
Structure prediction by ZEFSAII (Michael W. Deem and Ramdas Pophale) SiO2 
 PCOD9002206
Probable space group: P -1
;
_chemical_formula_sum "Si O2"
_cell_formula_units_Z 14
_cell_length_a 27.212520
_cell_length_b 5.147224
_cell_length_c 5.110441
_cell_angle_alpha 87.104350
_cell_angle_beta 121.307525
_cell_angle_gamma 124.070652
_cell_volume 476.434494
_symmetry_space_group_name_H-M "P -1"
_symmetry_group_IT_number 2
_symmetry_cell_setting 'triclinic'
loop_
_space_group_symop_operation_xyz
x,y,z
-x,-y,-z
loop_
_atom_site_type_symbol
_atom_site_label
_atom_site_fract_x
_atom_site_fract_y
_atom_site_fract_z
Si Si1 0.599075 0.166987 0.882401
Si Si2 0.553582 0.524116 0.936620
Si Si3 0.972491 0.723951 0.205020
Si Si4 0.846247 0.515463 0.515983
Si Si5 0.684812 0.768140 0.674798
Si Si6 0.121272 0.883040 0.664940
Si Si7 0.266319 0.581573 0.367519
O O1 0.535659 0.181335 0.814433
O O2 0.659262 0.268248 0.266018
O O3 0.640511 0.466276 0.773059
O O4 0.713411 0.136932 0.802847
O O5 0.629663 0.679222 0.291370
O O6 0.500000 0.500000 0.000000
O O7 0.569016 0.794056 0.750777
O O8 0.904912 0.352171 0.145539
O O9 0.038726 0.712857 0.332253
O O10 0.928597 0.745538 0.853501
O O11 0.000000 0.000000 0.500000
O O12 0.835219 0.193828 0.396511
O O13 0.790921 0.459400 0.585961
O O14 0.846675 0.734522 0.276767
O O15 0.749168 0.753796 0.761268
#
# Coordination Sequence:
#
# PCOD9002206 Si02
#       7
#     2   2   2   2   2   2   2
#     4  10  21  38  61  82 121 160 191 241 295 335
#     4  10  21  36  58  92 121 152 199 240 284 350
#     4  11  25  42  63  89 122 152 195 246 306 366
#     4  12  25  40  65  87 119 156 199 248 301 357
#     4  10  21  40  60  83 122 157 193 246 289 336
#     4  11  25  41  62  89 117 155 192 244 306 362
#     4  10  23  40  58  87 114 153 203 241 286 348
#
# _framework density 29.38494
#
# number of rings (size 3 to 8) (size 9 to 14) (size 15 to 20)
#    0.000    1.429    1.429    3.000    4.000    3.429 
#    0.000    0.000    0.000    0.000    0.000    0.000 
#    0.000    0.000    0.000    0.000    0.000    0.000 
#
# Total GULP energy -78446.167275 kJ/mol
# GULP energy per Si atom -5603.297662 kJ/mol
# Density = 2.931806 g / cm^3
# Si number density = 29.384940 Si / 1000 Ang^3
#
#
#
# Elastic Constant Matrix: (Units=GPa)
#
#
# Indices 1 2 3 4 5 6 
#
# 1 210.6751 47.6858 7.1371 -20.5707 11.3171 -42.8318
# 2 47.6858 216.4393 33.8337 -19.7646 -4.7820 -37.3570
# 3 7.1371 33.8337 86.3686 -17.7439 19.0756 -30.4742
# 4 -20.5707 -19.7646 -17.7439 73.2016 -5.3714 1.2608
# 5 11.3171 -4.7820 19.0756 -5.3714 51.7274 -9.8119
# 6 -42.8318 -37.3570 -30.4742 1.2608 -9.8119 52.3620
#
#
#
# Elastic Compliance Matrix: (Units=1/GPa)
#
#
# Indices 1 2 3 4 5 6 
#
# 1 0.006235 -0.000578 0.002407 0.002007 -0.000986 0.005856
# 2 -0.000578 0.005624 -0.001210 0.001141 0.001808 0.003147
# 3 0.002407 -0.001210 0.017315 0.004029 -0.004669 0.010212
# 4 0.002007 0.001141 0.004029 0.015479 0.000651 0.004549
# 5 -0.000986 0.001808 -0.004669 0.000651 0.021854 0.001846
# 6 0.005856 0.003147 0.010212 0.004549 0.001846 0.032313
#
#
# Mechanical properties :
#
#
# Convention : Reuss Voigt Hill
#
# Bulk Modulus (GPa) = 32.87971 76.75512 54.81741
# Shear Modulus (GPa) = 46.41716 63.77996 55.09856
#
# Velocity S-wave (km/s) = 3.97876 4.66391 4.33490
# Velocity P-wave (km/s) = 5.68515 7.42833 6.61442
#
# Compressibility (1/GPa) = 0.03041390
#
# Stress axis : x y z
#
# Youngs Moduli (GPa) = 160.37426 177.81013 57.75310
#
# Poissons Ratio (x) = 0.10276 -0.13904
# Poissons Ratio (y) = 0.09268 0.06987
# Poissons Ratio (z) = -0.38610 0.21513
#
# Static dielectric constant tensor:
#      x y z
#    x 2.273140 0.110740 -0.033960 
#    y 0.110740 2.407510 0.119770 
#    z -0.033960 0.119770 2.356320 
# 
# From -- ./inp_files/120822.got.cif
#   From: 2010.05.17/outbox.cif.g08.bks.cpg/sg2_61_cif.got.tgz:120822.got - 2010.06.03 11:33:40.
