data_PCOD9002416
_publ_section_title
;
Structure prediction by ZEFSAII (Michael W. Deem and Ramdas Pophale) SiO2 
 PCOD9002416
Probable space group: P -1
;
_chemical_formula_sum "Si O2"
_cell_formula_units_Z 15
_cell_length_a 14.840193
_cell_length_b 6.482863
_cell_length_c 11.341770
_cell_angle_alpha 115.047576
_cell_angle_beta 41.920261
_cell_angle_gamma 120.563011
_cell_volume 625.793010
_symmetry_space_group_name_H-M "P -1"
_symmetry_group_IT_number 2
_symmetry_cell_setting 'triclinic'
loop_
_space_group_symop_operation_xyz
x,y,z
-x,-y,-z
loop_
_atom_site_type_symbol
_atom_site_label
_atom_site_fract_x
_atom_site_fract_y
_atom_site_fract_z
Si Si1 0.065380 0.334712 0.773343
Si Si2 0.894378 0.103024 0.516853
Si Si3 0.354079 0.431323 0.959032
Si Si4 0.781300 0.741050 0.701406
Si Si5 0.523325 0.987106 0.263587
Si Si6 0.765148 0.303027 0.482186
Si Si7 0.500000 0.000000 0.000000
Si Si8 0.215568 0.568866 0.905406
O O1 0.134245 0.587479 0.698476
O O2 0.139686 0.368135 0.835379
O O3 0.095785 0.124410 0.621195
O O4 0.897809 0.288451 0.932459
O O5 0.848465 0.261062 0.505893
O O6 0.049232 0.223445 0.449814
O O7 0.776957 0.992026 0.707706
O O8 0.275867 0.318784 0.128408
O O9 0.420060 0.228828 0.803447
O O10 0.245549 0.463394 0.973715
O O11 0.453793 0.700824 0.957206
O O12 0.710420 0.521025 0.631331
O O13 0.368982 0.932295 0.460321
O O14 0.637648 0.244931 0.239209
O O15 0.502538 0.972075 0.138037
#
# Coordination Sequence:
#
# PCOD9002416 Si02
#       8
#     2   2   2   2   2   2   1   2
#     4  10  23  45  64  90 121 166 218 261 310 369
#     4  10  22  38  62  90 127 166 206 257 316 370
#     4  11  22  39  63  92 128 165 207 253 314 372
#     4  10  21  36  60  92 125 164 207 255 310 380
#     4  11  24  39  62  97 127 168 206 253 314 374
#     4  11  23  39  62  92 128 164 207 257 314 372
#     4  10  22  36  58  86 132 164 196 246 302 374
#     4  10  24  43  66  90 123 163 216 266 307 367
#
# _framework density 23.969588000000002
#
# number of rings (size 3 to 8) (size 9 to 14) (size 15 to 20)
#    0.000    1.600    1.333    2.400    1.867    6.933 
#    0.000    4.667    0.000    0.000    0.000    0.000 
#    0.000    0.000    0.000    0.000    0.000    0.000 
#
# Total GULP energy -83701.170975 kJ/mol
# GULP energy per Si atom -5580.078065 kJ/mol
# Density = 2.391503 g / cm^3
# Si number density = 23.969588 Si / 1000 Ang^3
#
#
#
# Elastic Constant Matrix: (Units=GPa)
#
#
# Indices 1 2 3 4 5 6 
#
# 1 76.7181 19.9901 -1.7565 -0.1492 6.5784 1.4592
# 2 19.9901 78.7165 21.1235 -10.5621 1.4175 -11.2287
# 3 -1.7565 21.1235 35.1669 -16.7571 8.2653 1.9850
# 4 -0.1492 -10.5621 -16.7571 35.1201 4.0931 -0.2694
# 5 6.5784 1.4175 8.2653 4.0931 23.2965 -2.9592
# 6 1.4592 -11.2287 1.9850 -0.2694 -2.9592 21.1819
#
#
#
# Elastic Compliance Matrix: (Units=1/GPa)
#
#
# Indices 1 2 3 4 5 6 
#
# 1 0.015857 -0.006739 0.008729 0.003153 -0.008562 -0.006639
# 2 -0.006739 0.020397 -0.016846 -0.002865 0.008929 0.014067
# 3 0.008729 -0.016846 0.059868 0.026865 -0.029809 -0.018965
# 4 0.003153 -0.002865 0.026865 0.042554 -0.018524 -0.006300
# 5 -0.008562 0.008929 -0.029809 -0.018524 0.060708 0.016362
# 6 -0.006639 0.014067 -0.018965 -0.006300 0.016362 0.059107
#
#
# Mechanical properties :
#
#
# Convention : Reuss Voigt Hill
#
# Bulk Modulus (GPa) = 15.05785 29.92394 22.49089
# Shear Modulus (GPa) = 16.11125 26.00267 21.05696
#
# Velocity S-wave (km/s) = 2.59541 3.29723 2.96714
# Velocity P-wave (km/s) = 3.90861 5.19682 4.59805
#
# Compressibility (1/GPa) = 0.06641056
#
# Stress axis : x y z
#
# Youngs Moduli (GPa) = 63.06282 49.02603 16.70328
#
# Poissons Ratio (x) = 0.33040 -0.14581
# Poissons Ratio (y) = 0.42500 0.28139
# Poissons Ratio (z) = -0.55050 0.82591
#
# Static dielectric constant tensor:
#      x y z
#    x 2.098730 0.010750 -0.177510 
#    y 0.010750 1.951990 -0.048610 
#    z -0.177510 -0.048610 2.051320 
# 
# From -- ./inp_files/67138.got.cif
#   From: 2010.05.17/outbox.cif.g08.bks.cpg/sg2_34_cif.got.tgz:67138.got - 2010.06.03 11:33:40.
