data_PCOD9002228
_publ_section_title
;
Structure prediction by ZEFSAII (Michael W. Deem and Ramdas Pophale) SiO2 
 PCOD9002228
Probable space group: P -1
;
_chemical_formula_sum "Si O2"
_cell_formula_units_Z 16
_cell_length_a 14.903658
_cell_length_b 8.732682
_cell_length_c 27.812286
_cell_angle_alpha 45.043668
_cell_angle_beta 160.599054
_cell_angle_gamma 125.775059
_cell_volume 797.630038
_symmetry_space_group_name_H-M "P -1"
_symmetry_group_IT_number 2
_symmetry_cell_setting 'triclinic'
loop_
_space_group_symop_operation_xyz
x,y,z
-x,-y,-z
loop_
_atom_site_type_symbol
_atom_site_label
_atom_site_fract_x
_atom_site_fract_y
_atom_site_fract_z
Si Si1 0.469450 0.440355 0.918855
Si Si2 0.743385 0.241414 0.676627
Si Si3 0.888524 0.654656 0.530297
Si Si4 0.619357 0.283103 0.496708
Si Si5 0.733740 0.916762 0.495007
Si Si6 0.913067 0.766553 0.411269
Si Si7 0.097273 0.211257 0.289961
Si Si8 0.378693 0.189603 0.023855
O O1 0.516974 0.666177 0.915381
O O2 0.222842 0.502976 0.740872
O O3 0.383995 0.310047 0.948758
O O4 0.781781 0.281255 0.094018
O O5 0.500000 0.500000 0.500000
O O6 0.784510 0.208458 0.647528
O O7 0.587125 0.071698 0.656157
O O8 0.050683 0.205598 0.863236
O O9 0.698760 0.490511 0.469301
O O10 0.804241 0.800479 0.504336
O O11 0.859715 0.789914 0.436418
O O12 0.287642 0.339327 0.331569
O O13 0.722913 0.058790 0.565653
O O14 0.920824 0.754960 0.668881
O O15 0.832342 0.136873 0.494699
O O16 0.000000 0.500000 0.500000
O O17 0.618675 0.934754 0.201064
#
# Coordination Sequence:
#
# PCOD9002228 Si02
#       8
#     2   2   2   2   2   2   2   2
#     4  11  20  36  66  95 125 154 218 273 313 362
#     4  11  20  38  68  97 128 161 210 268 326 367
#     4  12  23  39  65  93 126 166 214 260 313 381
#     4  10  21  36  58  97 129 162 204 258 326 373
#     4  11  21  41  64  89 124 171 213 256 315 378
#     4  12  27  45  63  90 136 177 206 257 323 382
#     4  10  21  36  61  94 131 158 202 269 322 370
#     4  11  22  40  63 100 122 166 217 263 314 382
#
# _framework density 20.059425000000001
#
# number of rings (size 3 to 8) (size 9 to 14) (size 15 to 20)
#    0.000    1.000    5.000    3.375    0.000    1.500 
#    0.000    2.500    0.000    0.000    0.000    0.000 
#    0.000    0.000    0.000    0.000    0.000    0.000 
#
# Total GULP energy -89375.971526 kJ/mol
# GULP energy per Si atom -5585.998220 kJ/mol
# Density = 2.001377 g / cm^3
# Si number density = 20.059425 Si / 1000 Ang^3
#
#
#
# Elastic Constant Matrix: (Units=GPa)
#
#
# Indices 1 2 3 4 5 6 
#
# 1 65.0448 24.4033 23.4441 5.6210 -0.2220 13.2999
# 2 24.4033 120.7287 48.8221 8.9978 19.0974 35.8642
# 3 23.4441 48.8221 81.2315 5.6912 12.2753 14.3577
# 4 5.6210 8.9978 5.6912 26.7475 3.0660 11.0165
# 5 -0.2220 19.0974 12.2753 3.0660 28.8550 5.0234
# 6 13.2999 35.8642 14.3577 11.0165 5.0234 39.5847
#
#
#
# Elastic Compliance Matrix: (Units=1/GPa)
#
#
# Indices 1 2 3 4 5 6 
#
# 1 0.018276 -0.001447 -0.004263 -0.001493 0.003650 -0.003331
# 2 -0.001447 0.014889 -0.005914 0.001559 -0.005675 -0.010572
# 3 -0.004263 -0.005914 0.017509 -0.000895 -0.003673 0.001155
# 4 -0.001493 0.001559 -0.000895 0.042695 -0.003097 -0.012075
# 5 0.003650 -0.005675 -0.003673 -0.003097 0.040155 0.001013
# 6 -0.003331 -0.010572 0.001155 -0.012075 0.001013 0.038773
#
#
# Mechanical properties :
#
#
# Convention : Reuss Voigt Hill
#
# Bulk Modulus (GPa) = 36.46220 51.14933 43.80576
# Shear Modulus (GPa) = 24.42742 30.39314 27.41028
#
# Velocity S-wave (km/s) = 3.49342 3.89672 3.70057
# Velocity P-wave (km/s) = 5.87269 6.76758 6.33596
#
# Compressibility (1/GPa) = 0.02742566
#
# Stress axis : x y z
#
# Youngs Moduli (GPa) = 54.71643 67.16227 57.11298
#
# Poissons Ratio (x) = 0.09717 0.24349
# Poissons Ratio (y) = 0.07916 0.33779
# Poissons Ratio (z) = 0.23328 0.39722
#
# Static dielectric constant tensor:
#      x y z
#    x 1.731310 -0.033650 0.027280 
#    y -0.033650 1.766670 0.008080 
#    z 0.027280 0.008080 1.698390 
# 
# From -- ./inp_files/308475.got.cif
#   From: 2010.05.17/outbox.cif.g08.bks.cpg/sg2_155_cif.got.tgz:308475.got - 2010.06.03 11:33:40.
