data_PCOD9002164
_publ_section_title
;
Structure prediction by ZEFSAII (Michael W. Deem and Ramdas Pophale) SiO2 
 PCOD9002164
Probable space group: P -1
;
_chemical_formula_sum "Si O2"
_cell_formula_units_Z 12
_cell_length_a 12.841537
_cell_length_b 13.131452
_cell_length_c 5.541954
_cell_angle_alpha 76.183633
_cell_angle_beta 86.307609
_cell_angle_gamma 31.667664
_cell_volume 458.411840
_symmetry_space_group_name_H-M "P -1"
_symmetry_group_IT_number 2
_symmetry_cell_setting 'triclinic'
loop_
_space_group_symop_operation_xyz
x,y,z
-x,-y,-z
loop_
_atom_site_type_symbol
_atom_site_label
_atom_site_fract_x
_atom_site_fract_y
_atom_site_fract_z
Si Si1 0.499655 0.387891 0.359402
Si Si2 0.762895 0.076146 0.881510
Si Si3 0.187661 0.424620 0.242126
Si Si4 0.172471 0.786527 0.882525
Si Si5 0.033746 0.600272 0.670307
Si Si6 0.375423 0.941218 0.710418
O O1 0.561289 0.301633 0.667544
O O2 0.285433 0.618602 0.164671
O O3 0.549152 0.237329 0.295961
O O4 0.667483 0.330474 0.288788
O O5 0.846928 0.079651 0.078058
O O6 0.704724 0.014205 0.032712
O O7 0.957780 0.920351 0.763021
O O8 0.171829 0.493542 0.468204
O O9 0.412126 0.181192 0.287118
O O10 0.020946 0.476097 0.259177
O O11 0.135488 0.537443 0.947790
O O12 0.818430 0.845081 0.520308
#
# Coordination Sequence:
#
# PCOD9002164 Si02
#       6
#     2   2   2   2   2   2
#     4  10  21  36  58  86 120 163 205 258 313 367
#     4  10  21  36  58  86 120 163 205 258 313 367
#     4  10  24  45  68  94 129 171 210 257 319 384
#     4   9  20  38  55  82 120 162 213 248 312 377
#     4  10  24  45  68  94 129 171 210 257 319 384
#     4  11  25  36  63  98 124 162 211 266 317 373
#
# _framework density 26.177333999999998
#
# number of rings (size 3 to 8) (size 9 to 14) (size 15 to 20)
#    0.000    2.000    0.000    1.500    7.000    0.000 
#    0.000    8.333    0.000    0.000    0.000    0.000 
#    0.000    0.000    0.000    0.000    0.000    0.000 
#
# Total GULP energy -67041.194975 kJ/mol
# GULP energy per Si atom -5586.766248 kJ/mol
# Density = 2.611775 g / cm^3
# Si number density = 26.177334 Si / 1000 Ang^3
#
#
#
# Elastic Constant Matrix: (Units=GPa)
#
#
# Indices 1 2 3 4 5 6 
#
# 1 43.6587 5.2481 20.7245 17.7753 1.7238 -11.2970
# 2 5.2481 77.5022 52.2436 -21.4123 4.3690 -24.3885
# 3 20.7245 52.2436 187.4810 -14.1904 7.5822 -22.3604
# 4 17.7753 -21.4123 -14.1904 43.3741 -5.2067 -3.6102
# 5 1.7238 4.3690 7.5822 -5.2067 23.7219 -2.6425
# 6 -11.2970 -24.3885 -22.3604 -3.6102 -2.6425 36.8241
#
#
#
# Elastic Compliance Matrix: (Units=1/GPa)
#
#
# Indices 1 2 3 4 5 6 
#
# 1 0.032577 -0.002773 -0.003370 -0.015922 -0.003798 0.004278
# 2 -0.002773 0.023315 -0.003643 0.012766 0.001403 0.013731
# 3 -0.003370 -0.003643 0.007006 0.001854 -0.000813 0.000931
# 4 -0.015922 0.012766 0.001854 0.038147 0.007586 0.008981
# 5 -0.003798 0.001403 -0.000813 0.007586 0.044455 0.003205
# 6 0.004278 0.013731 0.000931 0.008981 0.003205 0.039238
#
#
# Mechanical properties :
#
#
# Convention : Reuss Voigt Hill
#
# Bulk Modulus (GPa) = 23.08083 51.67491 37.37787
# Shear Modulus (GPa) = 22.85686 36.14571 29.50129
#
# Velocity S-wave (km/s) = 2.95812 3.71995 3.36069
# Velocity P-wave (km/s) = 4.52809 6.18335 5.41929
#
# Compressibility (1/GPa) = 0.04332600
#
# Stress axis : x y z
#
# Youngs Moduli (GPa) = 30.69632 42.89023 142.73742
#
# Poissons Ratio (x) = 0.11894 0.48098
# Poissons Ratio (y) = 0.08512 0.52005
# Poissons Ratio (z) = 0.10344 0.15627
#
# Static dielectric constant tensor:
#      x y z
#    x 2.087860 -0.020570 -0.014480 
#    y -0.020570 2.172060 0.117940 
#    z -0.014480 0.117940 2.064810 
# 
# From -- ./inp_files/29372.got.cif
#   From: 2010.05.17/outbox.cif.g08.bks.cpg/sg2_15_cif.got.tgz:29372.got - 2010.06.03 11:33:40.
