data_PCOD9002000
_publ_section_title
;
Structure prediction by ZEFSAII (Michael W. Deem and Ramdas Pophale) SiO2 
 PCOD9002000
Probable space group: P -1
;
_chemical_formula_sum "Si O2"
_cell_formula_units_Z 12
_cell_length_a 5.124618
_cell_length_b 20.697902
_cell_length_c 20.796580
_cell_angle_alpha 165.807708
_cell_angle_beta 127.267778
_cell_angle_gamma 51.468224
_cell_volume 423.055027
_symmetry_space_group_name_H-M "P -1"
_symmetry_group_IT_number 2
_symmetry_cell_setting 'triclinic'
loop_
_space_group_symop_operation_xyz
x,y,z
-x,-y,-z
loop_
_atom_site_type_symbol
_atom_site_label
_atom_site_fract_x
_atom_site_fract_y
_atom_site_fract_z
Si Si1 0.815139 0.657330 0.702623
Si Si2 0.145951 0.052448 0.814244
Si Si3 0.852567 0.584874 0.145579
Si Si4 0.845966 0.965808 0.355934
Si Si5 0.878997 0.882392 0.785874
Si Si6 0.830030 0.604850 0.314266
O O1 0.500000 0.500000 0.500000
O O2 0.891597 0.768027 0.750395
O O3 0.091496 0.403312 0.521121
O O4 0.846004 0.931773 0.009997
O O5 0.087638 0.755925 0.535164
O O6 0.100139 0.058363 0.736103
O O7 0.522494 0.068362 0.902014
O O8 0.882284 0.292135 0.037583
O O9 0.908716 0.584169 0.230094
O O10 0.876015 0.891724 0.430980
O O11 0.500000 0.500000 0.000000
O O12 0.125462 0.347476 0.925153
O O13 0.513627 0.185362 0.527892
#
# Coordination Sequence:
#
# PCOD9002000 Si02
#       6
#     2   2   2   2   2   2
#     4  10  21  38  59  86 117 152 198 247 298 359
#     4  10  21  38  57  83 115 150 194 242 293 351
#     4  10  21  36  56  83 114 149 190 237 290 348
#     4  10  21  37  56  82 114 148 191 239 287 347
#     4  10  21  38  59  84 118 155 196 249 300 354
#     4  10  21  37  57  82 115 150 192 243 290 349
#
# _framework density 28.365103000000001
#
# number of rings (size 3 to 8) (size 9 to 14) (size 15 to 20)
#    0.000    2.000    0.000    3.000    0.000    2.667 
#    0.000    3.333    0.000    0.000    0.000    0.000 
#    0.000    0.000    0.000    0.000    0.000    0.000 
#
# Total GULP energy -67040.678755 kJ/mol
# GULP energy per Si atom -5586.723230 kJ/mol
# Density = 2.830054 g / cm^3
# Si number density = 28.365103 Si / 1000 Ang^3
#
#
#
# Elastic Constant Matrix: (Units=GPa)
#
#
# Indices 1 2 3 4 5 6 
#
# 1 93.0200 20.8409 68.1599 9.4414 2.9390 0.9652
# 2 20.8409 77.3384 61.0121 6.5686 6.2585 -21.8957
# 3 68.1599 61.0121 292.5284 19.2315 -9.3915 -23.9424
# 4 9.4414 6.5686 19.2315 31.0034 -18.5301 2.6531
# 5 2.9390 6.2585 -9.3915 -18.5301 49.3665 6.9423
# 6 0.9652 -21.8957 -23.9424 2.6531 6.9423 68.5670
#
#
#
# Elastic Compliance Matrix: (Units=1/GPa)
#
#
# Indices 1 2 3 4 5 6 
#
# 1 0.013544 -0.001293 -0.002841 -0.003333 -0.002260 -0.001238
# 2 -0.001293 0.017989 -0.002815 -0.005481 -0.005578 0.005557
# 3 -0.002841 -0.002815 0.004829 -0.001033 0.000948 0.000771
# 4 -0.003333 -0.005481 -0.001033 0.047026 0.019167 -0.005824
# 5 -0.002260 -0.005578 0.000948 0.019167 0.029193 -0.005116
# 6 -0.001238 0.005557 0.000771 -0.005824 -0.005116 0.017389
#
#
# Mechanical properties :
#
#
# Convention : Reuss Voigt Hill
#
# Bulk Modulus (GPa) = 44.51347 84.76808 64.64077
# Shear Modulus (GPa) = 33.03478 50.64563 41.84020
#
# Velocity S-wave (km/s) = 3.41637 4.23009 3.84482
# Velocity P-wave (km/s) = 5.59367 7.33538 6.52292
#
# Compressibility (1/GPa) = 0.02246511
#
# Stress axis : x y z
#
# Youngs Moduli (GPa) = 73.83175 55.58895 207.08469
#
# Poissons Ratio (x) = 0.07189 0.58830
# Poissons Ratio (y) = 0.09548 0.58286
# Poissons Ratio (z) = 0.20975 0.15646
#
# Static dielectric constant tensor:
#      x y z
#    x 2.338470 -0.019870 0.022080 
#    y -0.019870 2.309470 -0.000670 
#    z 0.022080 -0.000670 2.230180 
# 
# From -- ./inp_files/622084.got.cif
#   From: 2010.05.17/outbox.cif.g08.bks.cpg/sg2_312_cif.got.tgz:622084.got - 2010.06.03 11:33:40.
