data_PCOD9002002
_publ_section_title
;
Structure prediction by ZEFSAII (Michael W. Deem and Ramdas Pophale) SiO2 
 PCOD9002002
Probable space group: P -1
;
_chemical_formula_sum "Si O2"
_cell_formula_units_Z 16
_cell_length_a 19.920482
_cell_length_b 19.100732
_cell_length_c 6.451587
_cell_angle_alpha 67.338100
_cell_angle_beta 102.189655
_cell_angle_gamma 160.496912
_cell_volume 657.773003
_symmetry_space_group_name_H-M "P -1"
_symmetry_group_IT_number 2
_symmetry_cell_setting 'triclinic'
loop_
_space_group_symop_operation_xyz
x,y,z
-x,-y,-z
loop_
_atom_site_type_symbol
_atom_site_label
_atom_site_fract_x
_atom_site_fract_y
_atom_site_fract_z
Si Si1 0.421998 0.866530 0.907024
Si Si2 0.362692 0.030502 0.818383
Si Si3 0.742668 0.534819 0.509547
Si Si4 0.206175 0.279280 0.965470
Si Si5 0.211163 0.764761 0.647503
Si Si6 0.491115 0.679509 0.005039
Si Si7 0.296862 0.244374 0.779509
Si Si8 0.908339 0.225846 0.677011
O O1 0.202395 0.674549 0.868121
O O2 0.616643 0.070171 0.621347
O O3 0.447726 0.811512 0.089713
O O4 0.500000 0.000000 0.000000
O O5 0.484750 0.237915 0.608714
O O6 0.316482 0.930314 0.704706
O O7 0.140093 0.807159 0.075150
O O8 0.814656 0.691792 0.289477
O O9 0.718645 0.514159 0.764800
O O10 0.908818 0.646387 0.395412
O O11 0.275296 0.268509 0.952860
O O12 0.383754 0.514487 0.946564
O O13 0.950642 0.008689 0.202954
O O14 0.032027 0.632428 0.564764
O O15 0.642705 0.779239 0.120992
O O16 0.663021 0.930060 0.780503
O O17 0.500000 0.500000 0.500000
#
# Coordination Sequence:
#
# PCOD9002002 Si02
#       8
#     2   2   2   2   2   2   2   2
#     4   8  15  30  56  85 114 150 196 241 289 342
#     4   9  19  34  56  81 115 152 191 247 288 340
#     4  11  22  39  57  86 118 152 200 241 292 357
#     4  11  24  40  63  87 117 156 195 244 298 355
#     4   9  16  32  57  83 111 157 195 233 300 341
#     4  11  23  41  62  87 117 157 196 243 301 348
#     4  11  23  43  62  88 120 149 198 248 293 356
#     4  10  21  36  56  83 118 150 196 243 286 351
#
# _framework density 24.324501000000001
#
# number of rings (size 3 to 8) (size 9 to 14) (size 15 to 20)
#    0.000    2.000    2.500    1.125    0.000    2.500 
#    0.000    0.625    0.000   25.500    0.000    0.000 
#    0.000    0.000    0.000    0.000    0.000    0.000 
#
# Total GULP energy -89261.847261 kJ/mol
# GULP energy per Si atom -5578.865454 kJ/mol
# Density = 2.426914 g / cm^3
# Si number density = 24.324501 Si / 1000 Ang^3
#
#
#
# Elastic Constant Matrix: (Units=GPa)
#
#
# Indices 1 2 3 4 5 6 
#
# 1 129.9260 13.7427 40.5714 4.5786 -19.5756 3.6209
# 2 13.7427 49.4427 27.6856 -1.9383 -12.9323 -12.5210
# 3 40.5714 27.6856 100.6196 -8.0558 -8.4968 0.9870
# 4 4.5786 -1.9383 -8.0558 25.7593 -9.8875 -3.1089
# 5 -19.5756 -12.9323 -8.4968 -9.8875 44.8856 0.7624
# 6 3.6209 -12.5210 0.9870 -3.1089 0.7624 45.8284
#
#
#
# Elastic Compliance Matrix: (Units=1/GPa)
#
#
# Indices 1 2 3 4 5 6 
#
# 1 0.009380 -0.000064 -0.003643 -0.001759 0.003010 -0.000850
# 2 -0.000064 0.028239 -0.006881 0.003835 0.007514 0.008004
# 3 -0.003643 -0.006881 0.013649 0.004191 -0.000037 -0.001601
# 4 -0.001759 0.003835 0.004191 0.045467 0.011079 0.003996
# 5 0.003010 0.007514 -0.000037 0.011079 0.028154 0.002099
# 6 -0.000850 0.008004 -0.001601 0.003996 0.002099 0.024345
#
#
# Mechanical properties :
#
#
# Convention : Reuss Voigt Hill
#
# Bulk Modulus (GPa) = 33.23196 49.33197 41.28196
# Shear Modulus (GPa) = 27.70984 36.49390 32.10187
#
# Velocity S-wave (km/s) = 3.37883 3.87756 3.63676
# Velocity P-wave (km/s) = 5.37713 6.35391 5.88582
#
# Compressibility (1/GPa) = 0.03009151
#
# Stress axis : x y z
#
# Youngs Moduli (GPa) = 106.60811 35.41207 73.26721
#
# Poissons Ratio (x) = 0.00227 0.26690
# Poissons Ratio (y) = 0.00685 0.50416
# Poissons Ratio (z) = 0.38836 0.24367
#
# Static dielectric constant tensor:
#      x y z
#    x 1.933600 0.060830 0.005520 
#    y 0.060830 1.947400 0.005130 
#    z 0.005520 0.005130 1.986490 
# 
# From -- ./inp_files/10586.got.cif
#   From: 2010.05.17/outbox.cif.g08.bks.cpg/sg2_6_cif.got.tgz:10586.got - 2010.06.03 11:33:40.
