data_PCOD9002300
_publ_section_title
;
Structure prediction by ZEFSAII (Michael W. Deem and Ramdas Pophale) SiO2 
 PCOD9002300
Probable space group: P -1
;
_chemical_formula_sum "Si O2"
_cell_formula_units_Z 16
_cell_length_a 10.931677
_cell_length_b 14.237098
_cell_length_c 11.795256
_cell_angle_alpha 59.470886
_cell_angle_beta 52.872611
_cell_angle_gamma 30.414903
_cell_volume 740.622586
_symmetry_space_group_name_H-M "P -1"
_symmetry_group_IT_number 2
_symmetry_cell_setting 'triclinic'
loop_
_space_group_symop_operation_xyz
x,y,z
-x,-y,-z
loop_
_atom_site_type_symbol
_atom_site_label
_atom_site_fract_x
_atom_site_fract_y
_atom_site_fract_z
Si Si1 0.607461 0.942306 0.606141
Si Si2 0.375415 0.363541 0.500181
Si Si3 0.280269 0.351165 0.324576
Si Si4 0.070010 0.021520 0.562577
Si Si5 0.732044 0.434369 0.063209
Si Si6 0.733303 0.213214 0.051921
Si Si7 0.421618 0.573286 0.368154
Si Si8 0.157002 0.296770 0.781043
O O1 0.760711 0.740952 0.654882
O O2 0.788632 0.941242 0.534930
O O3 0.500000 0.000000 0.500000
O O4 0.365327 0.093433 0.736183
O O5 0.263955 0.356865 0.464305
O O6 0.285110 0.538336 0.430667
O O7 0.300222 0.333811 0.670153
O O8 0.684245 0.192398 0.407358
O O9 0.570640 0.219738 0.211387
O O10 0.089957 0.551004 0.258618
O O11 0.789082 0.208806 0.658249
O O12 0.000000 0.000000 0.500000
O O13 0.775574 0.296850 0.053259
O O14 0.658345 0.459292 0.220258
O O15 0.468359 0.637972 0.028191
O O16 0.999274 0.350086 0.947691
O O17 0.000000 0.000000 0.000000
O O18 0.500000 0.500000 0.500000
#
# Coordination Sequence:
#
# PCOD9002300 Si02
#       8
#     2   2   2   2   2   2   2   2
#     4  11  22  35  63  97 126 169 213 269 323 382
#     4  11  22  39  64  93 126 167 214 268 317 386
#     4  11  20  35  60  97 125 168 204 259 326 388
#     4  11  24  41  61  90 128 165 220 269 324 378
#     4  10  23  39  59  93 128 171 211 266 328 396
#     4  10  21  36  59  91 137 168 201 256 343 397
#     4  12  25  42  67  90 124 174 231 272 314 385
#     4  10  22  38  58  91 137 157 206 263 330 383
#
# _framework density 21.603444
#
# number of rings (size 3 to 8) (size 9 to 14) (size 15 to 20)
#    0.000    1.250    5.000    1.875    3.500    0.000 
#    0.000    0.625    0.000    3.000    0.000    0.000 
#    0.000    0.000    0.000    0.000    0.000    0.000 
#
# Total GULP energy -89099.228701 kJ/mol
# GULP energy per Si atom -5568.701794 kJ/mol
# Density = 2.155427 g / cm^3
# Si number density = 21.603444 Si / 1000 Ang^3
#
#
#
# Elastic Constant Matrix: (Units=GPa)
#
#
# Indices 1 2 3 4 5 6 
#
# 1 62.7842 14.0822 17.3788 4.6755 3.2779 9.9196
# 2 14.0822 105.6775 18.3066 27.3097 7.2892 10.2986
# 3 17.3788 18.3066 138.1760 25.3941 -1.0181 3.3210
# 4 4.6755 27.3097 25.3941 30.3201 0.8289 -5.0994
# 5 3.2779 7.2892 -1.0181 0.8289 23.5334 -3.0987
# 6 9.9196 10.2986 3.3210 -5.0994 -3.0987 37.4785
#
#
#
# Elastic Compliance Matrix: (Units=1/GPa)
#
#
# Indices 1 2 3 4 5 6 
#
# 1 0.017614 -0.001200 -0.001823 -0.000792 -0.002726 -0.004504
# 2 -0.001200 0.013974 0.001002 -0.014112 -0.004397 -0.005895
# 3 -0.001823 0.001002 0.008919 -0.008387 0.000402 -0.001691
# 4 -0.000792 -0.014112 -0.008387 0.054854 0.003847 0.012612
# 5 -0.002726 -0.004397 0.000402 0.003847 0.044923 0.006132
# 6 -0.004504 -0.005895 -0.001691 0.012612 0.006132 0.031867
#
#
# Mechanical properties :
#
#
# Convention : Reuss Voigt Hill
#
# Bulk Modulus (GPa) = 27.42311 45.13033 36.27672
# Shear Modulus (GPa) = 26.54686 35.39110 30.96898
#
# Velocity S-wave (km/s) = 3.50926 4.05188 3.79029
# Velocity P-wave (km/s) = 5.39827 6.54416 5.99864
#
# Compressibility (1/GPa) = 0.03646560
#
# Stress axis : x y z
#
# Youngs Moduli (GPa) = 56.77271 71.56381 112.12629
#
# Poissons Ratio (x) = 0.08587 0.20438
# Poissons Ratio (y) = 0.06812 -0.11239
# Poissons Ratio (z) = 0.10348 -0.07173
#
# Static dielectric constant tensor:
#      x y z
#    x 1.943000 0.028940 -0.032700 
#    y 0.028940 1.943010 -0.038370 
#    z -0.032700 -0.038370 1.904120 
# 
# From -- ./inp_files/432679.got.cif
#   From: 2010.05.17/outbox.cif.g08.bks.cpg/sg2_217_cif.got.tgz:432679.got - 2010.06.03 11:33:40.
