data_PCOD9002386
_publ_section_title
;
Structure prediction by ZEFSAII (Michael W. Deem and Ramdas Pophale) SiO2 
 PCOD9002386
Probable space group: P -1
;
_chemical_formula_sum "Si O2"
_cell_formula_units_Z 15
_cell_length_a 12.277324
_cell_length_b 17.389986
_cell_length_c 15.064819
_cell_angle_alpha 24.015875
_cell_angle_beta 151.429157
_cell_angle_gamma 138.062316
_cell_volume 597.266588
_symmetry_space_group_name_H-M "P -1"
_symmetry_group_IT_number 2
_symmetry_cell_setting 'triclinic'
loop_
_space_group_symop_operation_xyz
x,y,z
-x,-y,-z
loop_
_atom_site_type_symbol
_atom_site_label
_atom_site_fract_x
_atom_site_fract_y
_atom_site_fract_z
Si Si1 0.200842 0.391698 0.191778
Si Si2 0.552440 0.046552 0.163913
Si Si3 0.859582 0.996285 0.201764
Si Si4 0.114603 0.444076 0.873902
Si Si5 0.520362 0.021146 0.616089
Si Si6 0.376173 0.555535 0.449034
Si Si7 0.000000 0.000000 0.500000
Si Si8 0.738205 0.203177 0.441978
O O1 0.211417 0.156566 0.446225
O O2 0.449740 0.401841 0.397195
O O3 0.150507 0.479611 0.966207
O O4 0.000000 0.500000 0.000000
O O5 0.447964 0.039131 0.194241
O O6 0.717257 0.177894 0.116879
O O7 0.383116 0.038186 0.971092
O O8 0.944978 0.933744 0.426714
O O9 0.812903 0.229223 0.926954
O O10 0.043461 0.904073 0.352872
O O11 0.241081 0.577405 0.767372
O O12 0.823932 0.537934 0.555623
O O13 0.283410 0.214157 0.229268
O O14 0.726235 0.095380 0.640136
O O15 0.479831 0.837909 0.726113
O O16 0.500000 0.500000 0.500000
#
# Coordination Sequence:
#
# PCOD9002386 Si02
#       8
#     2   2   2   2   2   2   1   2
#     4  10  21  36  60  88 129 174 215 255 326 395
#     4  10  23  40  63  89 133 179 210 273 334 388
#     4  11  24  41  62  99 132 175 219 266 332 396
#     4  11  22  41  66  96 129 172 223 269 330 391
#     4  10  22  47  67  93 134 173 221 284 332 375
#     4  11  22  39  63  90 136 177 206 270 327 387
#     4  12  22  38  62  94 140 164 216 276 316 402
#     4  11  23  41  73  96 123 179 229 273 330 387
#
# _framework density 25.114412999999999
#
# number of rings (size 3 to 8) (size 9 to 14) (size 15 to 20)
#    0.000    1.333    4.000    1.600    1.867    1.600 
#    2.400    0.000    0.000    3.200    0.000    0.000 
#    0.000    0.000    0.000    0.000    0.000    0.000 
#
# Total GULP energy -83617.790404 kJ/mol
# GULP energy per Si atom -5574.519360 kJ/mol
# Density = 2.505725 g / cm^3
# Si number density = 25.114413 Si / 1000 Ang^3
#
#
#
# Elastic Constant Matrix: (Units=GPa)
#
#
# Indices 1 2 3 4 5 6 
#
# 1 171.9631 39.8149 30.6840 36.5591 1.8359 -0.6306
# 2 39.8149 105.9533 27.0297 24.2287 -12.8135 9.3190
# 3 30.6840 27.0297 25.5257 19.3634 1.5968 -0.4656
# 4 36.5591 24.2287 19.3634 66.1857 -3.5519 -2.0333
# 5 1.8359 -12.8135 1.5968 -3.5519 33.7046 -0.2650
# 6 -0.6306 9.3190 -0.4656 -2.0333 -0.2650 44.0987
#
#
#
# Elastic Compliance Matrix: (Units=1/GPa)
#
#
# Indices 1 2 3 4 5 6 
#
# 1 0.007637 -0.000751 -0.006855 -0.001966 -0.000583 0.000101
# 2 -0.000751 0.014598 -0.014706 -0.000392 0.006221 -0.003232
# 3 -0.006855 -0.014706 0.073324 -0.012722 -0.010007 0.003137
# 4 -0.001966 -0.000392 -0.012722 0.020232 0.002700 0.000870
# 5 -0.000583 0.006221 -0.010007 0.002700 0.032816 -0.001107
# 6 0.000101 -0.003232 0.003137 0.000870 -0.001107 0.023427
#
#
# Mechanical properties :
#
#
# Convention : Reuss Voigt Hill
#
# Bulk Modulus (GPa) = 19.63326 55.38880 37.51103
# Shear Modulus (GPa) = 21.40063 42.52538 31.96301
#
# Velocity S-wave (km/s) = 2.92229 4.11940 3.57136
# Velocity P-wave (km/s) = 4.38416 6.68793 5.65461
#
# Compressibility (1/GPa) = 0.05093397
#
# Stress axis : x y z
#
# Youngs Moduli (GPa) = 130.94433 68.50160 13.63808
#
# Poissons Ratio (x) = 0.05142 0.09349
# Poissons Ratio (y) = 0.09830 0.20057
# Poissons Ratio (z) = 0.89768 1.00742
#
# Static dielectric constant tensor:
#      x y z
#    x 2.417130 0.488600 -0.051720 
#    y 0.488600 2.445360 -0.215320 
#    z -0.051720 -0.215320 2.162650 
# 
# From -- ./inp_files/523444.got.cif
#   From: 2010.05.17/outbox.cif.g08.bks.cpg/sg2_262_cif.got.tgz:523444.got - 2010.06.03 11:33:40.
