data_PCOD9002693
_publ_section_title
;
Structure prediction by ZEFSAII (Michael W. Deem and Ramdas Pophale) SiO2 
 PCOD9002693
Probable space group: P -1
;
_chemical_formula_sum "Si O2"
_cell_formula_units_Z 12
_cell_length_a 11.460314
_cell_length_b 14.725278
_cell_length_c 9.990714
_cell_angle_alpha 108.894710
_cell_angle_beta 87.353925
_cell_angle_gamma 29.940352
_cell_volume 574.704455
_symmetry_space_group_name_H-M "P -1"
_symmetry_group_IT_number 2
_symmetry_cell_setting 'triclinic'
loop_
_space_group_symop_operation_xyz
x,y,z
-x,-y,-z
loop_
_atom_site_type_symbol
_atom_site_label
_atom_site_fract_x
_atom_site_fract_y
_atom_site_fract_z
Si Si1 0.740602 0.234935 0.231895
Si Si2 0.303337 0.181163 0.226925
Si Si3 0.751958 0.948742 0.428474
Si Si4 0.867362 0.186427 0.501061
Si Si5 0.774816 0.738905 0.215926
Si Si6 0.377698 0.330404 0.401949
O O1 0.906235 0.135713 0.317096
O O2 0.515807 0.494527 0.314732
O O3 0.496372 0.334710 0.326158
O O4 0.000000 0.000000 0.000000
O O5 0.296768 0.301895 0.297054
O O6 0.946421 0.410372 0.368635
O O7 0.499797 0.992726 0.254691
O O8 0.500000 0.000000 0.000000
O O9 0.411379 0.177274 0.620539
O O10 0.667430 0.075350 0.362816
O O11 0.930799 0.713719 0.262864
O O12 0.939164 0.868844 0.486332
O O13 0.000000 0.000000 0.500000
O O14 0.000000 0.500000 0.000000
#
# Coordination Sequence:
#
# PCOD9002693 Si02
#       6
#     2   2   2   2   2   2
#     4  11  26  45  68 100 134 182 232 278 339 407
#     4  10  21  36  63  93 125 168 211 274 336 392
#     4  10  21  40  64  88 129 172 215 273 330 393
#     4  11  24  46  69  96 133 181 225 283 337 397
#     4  10  21  37  60  96 125 165 216 267 334 395
#     4  10  21  41  61  90 131 169 217 275 329 393
#
# _framework density 20.880298
#
# number of rings (size 3 to 8) (size 9 to 14) (size 15 to 20)
#    0.000    1.667    1.667    2.000    0.000   10.000 
#    6.000    0.000    0.000    0.000    0.000    0.000 
#    0.000    0.000    0.000    0.000    0.000    0.000 
#
# Total GULP energy -67054.580547 kJ/mol
# GULP energy per Si atom -5587.881712 kJ/mol
# Density = 2.083277 g / cm^3
# Si number density = 20.880298 Si / 1000 Ang^3
#
#
#
# Elastic Constant Matrix: (Units=GPa)
#
#
# Indices 1 2 3 4 5 6 
#
# 1 114.3264 44.0774 47.4342 -3.4360 15.2573 -9.5045
# 2 44.0774 126.0218 35.6269 -2.4523 10.1650 13.8029
# 3 47.4342 35.6269 167.1023 4.2020 24.4120 -3.2611
# 4 -3.4360 -2.4523 4.2020 22.1047 2.3889 5.3495
# 5 15.2573 10.1650 24.4120 2.3889 26.5190 -4.2636
# 6 -9.5045 13.8029 -3.2611 5.3495 -4.2636 36.1019
#
#
#
# Elastic Compliance Matrix: (Units=1/GPa)
#
#
# Indices 1 2 3 4 5 6 
#
# 1 0.011777 -0.003684 -0.002084 0.001219 -0.002945 0.003792
# 2 -0.003684 0.010336 -0.001034 0.002342 -0.002002 -0.005599
# 3 -0.002084 -0.001034 0.007601 -0.001341 -0.005263 0.000110
# 4 0.001219 0.002342 -0.001341 0.048697 -0.006139 -0.008637
# 5 -0.002945 -0.002002 -0.005263 -0.006139 0.046520 0.005918
# 6 0.003792 -0.005599 0.000110 -0.008637 0.005918 0.032827
#
#
# Mechanical properties :
#
#
# Convention : Reuss Voigt Hill
#
# Bulk Modulus (GPa) = 62.06989 73.52528 67.79758
# Shear Modulus (GPa) = 28.29145 35.63258 31.96202
#
# Velocity S-wave (km/s) = 3.68494 4.13548 3.91669
# Velocity P-wave (km/s) = 6.92070 7.62182 7.27971
#
# Compressibility (1/GPa) = 0.01611087
#
# Stress axis : x y z
#
# Youngs Moduli (GPa) = 84.91275 96.74823 131.55979
#
# Poissons Ratio (x) = 0.35642 0.27416
# Poissons Ratio (y) = 0.31282 0.13598
# Poissons Ratio (z) = 0.17695 0.10000
#
# Static dielectric constant tensor:
#      x y z
#    x 1.785700 0.027830 0.029440 
#    y 0.027830 1.827270 -0.007860 
#    z 0.029440 -0.007860 1.720270 
# 
# From -- ./inp_files/44748.got.cif
#   From: 2010.05.17/outbox.cif.g08.bks.cpg/sg2_23_cif.got.tgz:44748.got - 2010.06.03 11:33:40.
