data_PCOD9002488
_publ_section_title
;
Structure prediction by ZEFSAII (Michael W. Deem and Ramdas Pophale) SiO2 
 PCOD9002488
Probable space group: P -1
;
_chemical_formula_sum "Si O2"
_cell_formula_units_Z 16
_cell_length_a 13.586990
_cell_length_b 8.377909
_cell_length_c 12.809063
_cell_angle_alpha 113.587712
_cell_angle_beta 45.802143
_cell_angle_gamma 81.418077
_cell_volume 726.626599
_symmetry_space_group_name_H-M "P -1"
_symmetry_group_IT_number 2
_symmetry_cell_setting 'triclinic'
loop_
_space_group_symop_operation_xyz
x,y,z
-x,-y,-z
loop_
_atom_site_type_symbol
_atom_site_label
_atom_site_fract_x
_atom_site_fract_y
_atom_site_fract_z
Si Si1 0.385719 0.881572 0.842558
Si Si2 0.753031 0.783895 0.591578
Si Si3 0.570060 0.203777 0.451237
Si Si4 0.439850 0.741073 0.145714
Si Si5 0.576465 0.431003 0.690944
Si Si6 0.886565 0.593334 0.841845
Si Si7 0.212056 0.333063 0.831855
Si Si8 0.252025 0.431899 0.264409
O O1 0.560174 0.863807 0.719862
O O2 0.394637 0.797434 0.697322
O O3 0.418985 0.701452 0.854410
O O4 0.209041 0.147735 0.054631
O O5 0.792935 0.681936 0.651553
O O6 0.898902 0.578233 0.353166
O O7 0.745699 0.998988 0.649053
O O8 0.632736 0.308426 0.506533
O O9 0.357352 0.340179 0.669755
O O10 0.690749 0.935275 0.321425
O O11 0.479174 0.682905 0.223744
O O12 0.500000 0.500000 0.000000
O O13 0.551854 0.759381 0.983039
O O14 0.730069 0.409984 0.636494
O O15 0.860150 0.478458 0.736033
O O16 0.800146 0.618074 0.022359
O O17 0.000000 0.500000 0.000000
#
# Coordination Sequence:
#
# PCOD9002488 Si02
#       8
#     2   2   2   2   2   2   2   2
#     4  10  22  40  65  88 123 160 207 253 296 367
#     4  11  22  38  67  87 124 162 202 257 299 365
#     4  10  21  39  64  89 119 163 209 239 309 361
#     4  10  21  36  61  88 118 164 197 244 311 352
#     4  10  22  37  64  89 125 163 195 256 305 357
#     4  11  22  37  65  94 117 160 212 242 305 364
#     4  10  22  38  64  93 124 156 200 260 297 361
#     4  10  21  40  60  89 123 158 205 246 301 364
#
# _framework density 22.019562000000001
#
# number of rings (size 3 to 8) (size 9 to 14) (size 15 to 20)
#    0.000    1.750    1.250    2.625    8.750    0.000 
#    0.000    5.000    2.750    9.000    0.000    0.000 
#    0.000    0.000    0.000    0.000    0.000    0.000 
#
# Total GULP energy -89074.926707 kJ/mol
# GULP energy per Si atom -5567.182919 kJ/mol
# Density = 2.196944 g / cm^3
# Si number density = 22.019562 Si / 1000 Ang^3
#
#
#
# Elastic Constant Matrix: (Units=GPa)
#
#
# Indices 1 2 3 4 5 6 
#
# 1 103.6242 18.7304 28.7078 9.1287 26.4259 -4.6810
# 2 18.7304 72.0334 38.4548 1.8865 -3.5977 -6.5950
# 3 28.7078 38.4548 122.9282 17.4697 -2.3534 3.8343
# 4 9.1287 1.8865 17.4697 22.4783 -11.6890 2.5772
# 5 26.4259 -3.5977 -2.3534 -11.6890 31.1197 -0.2569
# 6 -4.6810 -6.5950 3.8343 2.5772 -0.2569 13.7888
#
#
#
# Elastic Compliance Matrix: (Units=1/GPa)
#
#
# Indices 1 2 3 4 5 6 
#
# 1 0.019009 -0.004419 -0.000904 -0.020150 -0.024225 0.007906
# 2 -0.004419 0.019380 -0.006364 0.008812 0.008888 0.008057
# 3 -0.000904 -0.006364 0.011712 -0.008915 -0.002472 -0.004987
# 4 -0.020150 0.008812 -0.008915 0.086538 0.049833 -0.015393
# 5 -0.024225 0.008888 -0.002472 0.049833 0.072171 -0.011255
# 6 0.007906 0.008057 -0.004987 -0.015393 -0.011255 0.083114
#
#
# Mechanical properties :
#
#
# Convention : Reuss Voigt Hill
#
# Bulk Modulus (GPa) = 37.41425 52.26353 44.83889
# Shear Modulus (GPa) = 15.42229 27.65688 21.53959
#
# Velocity S-wave (km/s) = 2.64936 3.54787 3.13102
# Velocity P-wave (km/s) = 5.13683 6.36944 5.78605
#
# Compressibility (1/GPa) = 0.02672778
#
# Stress axis : x y z
#
# Youngs Moduli (GPa) = 52.60586 51.60068 85.38386
#
# Poissons Ratio (x) = 0.22801 0.07717
# Poissons Ratio (y) = 0.23245 0.54338
# Poissons Ratio (z) = 0.04754 0.32838
#
# Static dielectric constant tensor:
#      x y z
#    x 1.929530 0.019030 -0.029430 
#    y 0.019030 1.878950 -0.026030 
#    z -0.029430 -0.026030 1.865340 
# 
# From -- ./inp_files/447792.got.cif
#   From: 2010.05.17/outbox.cif.g08.bks.cpg/sg2_224_cif.got.tgz:447792.got - 2010.06.03 11:33:40.
