data_PCOD9002008
_publ_section_title
;
Structure prediction by ZEFSAII (Michael W. Deem and Ramdas Pophale) SiO2 
 PCOD9002008
Probable space group: P -1
;
_chemical_formula_sum "Si O2"
_cell_formula_units_Z 13
_cell_length_a 21.834438
_cell_length_b 24.912646
_cell_length_c 6.101311
_cell_angle_alpha 115.265607
_cell_angle_beta 114.910756
_cell_angle_gamma 10.529841
_cell_volume 548.464010
_symmetry_space_group_name_H-M "P -1"
_symmetry_group_IT_number 2
_symmetry_cell_setting 'triclinic'
loop_
_space_group_symop_operation_xyz
x,y,z
-x,-y,-z
loop_
_atom_site_type_symbol
_atom_site_label
_atom_site_fract_x
_atom_site_fract_y
_atom_site_fract_z
Si Si1 0.694942 0.549932 0.721847
Si Si2 0.000000 0.000000 0.500000
Si Si3 0.202533 0.364596 0.242646
Si Si4 0.795228 0.283249 0.957052
Si Si5 0.320959 0.790846 0.226761
Si Si6 0.724328 0.979904 0.035908
Si Si7 0.217295 0.165041 0.517097
O O1 0.505220 0.671136 0.479271
O O2 0.916508 0.324035 0.836851
O O3 0.961775 0.357212 0.644160
O O4 0.438734 0.816562 0.912998
O O5 0.089597 0.944214 0.284203
O O6 0.096444 0.847504 0.317627
O O7 0.952225 0.626703 0.437505
O O8 0.472080 0.169137 0.164864
O O9 0.423325 0.137686 0.351962
O O10 0.000000 0.500000 0.000000
O O11 0.612562 0.503613 0.038226
O O12 0.500000 0.500000 0.000000
O O13 0.100347 0.020313 0.131282
O O14 0.748981 0.911640 0.758616
#
# Coordination Sequence:
#
# PCOD9002008 Si02
#       7
#     2   1   2   2   2   2   2
#     4  10  22  38  56  82 111 143 187 229 269 327
#     4  10  22  38  58  80 110 142 176 226 278 324
#     4  10  21  36  56  85 115 145 185 228 270 323
#     4  10  22  38  56  81 110 140 178 224 275 331
#     4  11  23  38  58  83 110 143 184 227 276 331
#     4  10  21  38  58  82 112 147 185 225 273 324
#     4  10  21  37  57  80 114 149 183 229 272 320
#
# _framework density 23.702559000000001
#
# number of rings (size 3 to 8) (size 9 to 14) (size 15 to 20)
#    0.000    1.846    0.000    4.154    0.000    9.231 
#    0.000    0.000    0.000    0.000    0.000    0.000 
#    0.000    0.000    0.000    0.000    0.000    0.000 
#
# Total GULP energy -72467.351720 kJ/mol
# GULP energy per Si atom -5574.411671 kJ/mol
# Density = 2.364861 g / cm^3
# Si number density = 23.702559 Si / 1000 Ang^3
#
#
#
# Elastic Constant Matrix: (Units=GPa)
#
#
# Indices 1 2 3 4 5 6 
#
# 1 61.9896 36.4487 -2.4721 8.1342 -9.2016 -0.2089
# 2 36.4487 178.8569 78.1938 -3.5532 7.9323 32.6417
# 3 -2.4721 78.1938 139.4890 25.5196 19.8513 7.6934
# 4 8.1342 -3.5532 25.5196 50.4973 0.7847 14.7906
# 5 -9.2016 7.9323 19.8513 0.7847 37.2843 1.5780
# 6 -0.2089 32.6417 7.6934 14.7906 1.5780 10.1602
#
#
#
# Elastic Compliance Matrix: (Units=1/GPa)
#
#
# Indices 1 2 3 4 5 6 
#
# 1 0.010147 0.007824 -0.005119 0.013632 0.005042 -0.041678
# 2 0.007824 -0.008426 0.005819 -0.020073 -0.001163 0.052226
# 3 -0.005119 0.005819 0.004577 0.009299 -0.003643 -0.035237
# 4 0.013632 -0.020073 0.009299 -0.009443 -0.000143 0.071497
# 5 0.005042 -0.001163 -0.003643 -0.000143 0.030165 0.002121
# 6 -0.041678 0.052226 -0.035237 0.071497 0.002121 -0.147947
#
#
# Mechanical properties :
#
#
# Convention : Reuss Voigt Hill
#
# Bulk Modulus (GPa) = 42.83365 67.18625 55.00995
# Shear Modulus (GPa) = -38.40427 37.46602 -0.46912
#
# Velocity S-wave (km/s) = -4.02961 3.98008 -0.44537
# Velocity P-wave (km/s) = 1.88143 7.03765 4.79524
#
# Compressibility (1/GPa) = 0.02334613
#
# Stress axis : x y z
#
# Youngs Moduli (GPa) = 98.55389 -118.68210 218.49232
#
# Poissons Ratio (x) = 0.92852 1.11840
# Poissons Ratio (y) = -0.77105 -1.27148
# Poissons Ratio (z) = 0.50447 0.69065
#
# Static dielectric constant tensor:
#      x y z
#    x 1.918810 -0.019690 0.004880 
#    y -0.019690 1.928360 0.007890 
#    z 0.004880 0.007890 1.831300 
# 
# From -- ./inp_files/5007.got.cif
#   From: 2010.05.17/outbox.cif.g08.bks.cpg/sg2_3_cif.got.tgz:5007.got - 2010.06.03 11:33:40.
