data_PCOD9002486
_publ_section_title
;
Structure prediction by ZEFSAII (Michael W. Deem and Ramdas Pophale) SiO2 
 PCOD9002486
Probable space group: P -1
;
_chemical_formula_sum "Si O2"
_cell_formula_units_Z 16
_cell_length_a 15.630686
_cell_length_b 9.421108
_cell_length_c 6.696511
_cell_angle_alpha 124.681329
_cell_angle_beta 110.124870
_cell_angle_gamma 60.183949
_cell_volume 700.981254
_symmetry_space_group_name_H-M "P -1"
_symmetry_group_IT_number 2
_symmetry_cell_setting 'triclinic'
loop_
_space_group_symop_operation_xyz
x,y,z
-x,-y,-z
loop_
_atom_site_type_symbol
_atom_site_label
_atom_site_fract_x
_atom_site_fract_y
_atom_site_fract_z
Si Si1 0.564089 0.118606 0.703744
Si Si2 0.004463 0.372858 0.213649
Si Si3 0.730696 0.844595 0.383695
Si Si4 0.292245 0.826580 0.849901
Si Si5 0.242802 0.697536 0.311949
Si Si6 0.636054 0.546109 0.146253
Si Si7 0.875994 0.986456 0.823926
Si Si8 0.838285 0.596581 0.939403
O O1 0.479472 0.324130 0.822758
O O2 0.500000 0.000000 0.500000
O O3 0.646173 0.044897 0.537062
O O4 0.631249 0.087259 0.932161
O O5 0.098360 0.354047 0.136005
O O6 0.000000 0.500000 0.500000
O O7 0.018691 0.167512 0.144090
O O8 0.911318 0.482579 0.086256
O O9 0.695362 0.684728 0.315147
O O10 0.826233 0.853628 0.573681
O O11 0.757562 0.779500 0.125213
O O12 0.275009 0.812019 0.592791
O O13 0.335408 0.612673 0.792140
O O14 0.188821 0.925598 0.961967
O O15 0.153776 0.846065 0.227558
O O16 0.208173 0.550156 0.281168
O O17 0.327369 0.570153 0.124070
#
# Coordination Sequence:
#
# PCOD9002486 Si02
#       8
#     2   2   2   2   2   2   2   2
#     4   9  18  36  62  92 125 162 207 255 302 356
#     4  11  23  40  67  91 120 160 204 259 309 362
#     4   9  18  37  62  87 121 161 201 256 298 362
#     4  10  21  36  61  87 125 170 196 252 311 358
#     4  10  23  39  59  93 128 162 204 250 303 372
#     4   9  19  37  60  89 127 162 205 251 305 358
#     4  10  22  38  61  89 122 162 206 251 307 361
#     4  10  23  40  63  94 122 157 211 252 306 372
#
# _framework density 22.825146
#
# number of rings (size 3 to 8) (size 9 to 14) (size 15 to 20)
#    0.000    2.250    1.250    0.375    3.500    2.000 
#    0.000    1.250    0.000   10.500    0.000    0.000 
#    0.000    0.000    0.000    0.000    0.000    0.000 
#
# Total GULP energy -89265.264218 kJ/mol
# GULP energy per Si atom -5579.079014 kJ/mol
# Density = 2.277320 g / cm^3
# Si number density = 22.825146 Si / 1000 Ang^3
#
#
#
# Elastic Constant Matrix: (Units=GPa)
#
#
# Indices 1 2 3 4 5 6 
#
# 1 30.6990 3.3946 19.9359 0.8795 4.3853 0.3551
# 2 3.3946 83.1277 34.4834 21.9059 -7.4380 -3.5843
# 3 19.9359 34.4834 123.6706 3.9721 17.8391 5.5468
# 4 0.8795 21.9059 3.9721 38.0218 -0.2836 -1.0606
# 5 4.3853 -7.4380 17.8391 -0.2836 22.0571 8.2805
# 6 0.3551 -3.5843 5.5468 -1.0606 8.2805 36.7476
#
#
#
# Elastic Compliance Matrix: (Units=1/GPa)
#
#
# Indices 1 2 3 4 5 6 
#
# 1 0.036636 0.000911 -0.005792 -0.000754 -0.002755 0.001208
# 2 0.000911 0.018281 -0.006538 -0.009788 0.011159 -0.000036
# 3 -0.005792 -0.006538 0.012351 0.002531 -0.011053 0.000118
# 4 -0.000754 -0.009788 0.002531 0.031675 -0.005063 0.000726
# 5 -0.002755 0.011159 -0.011053 -0.005063 0.062849 -0.011525
# 6 0.001208 -0.000036 0.000118 0.000726 -0.011525 0.029798
#
#
# Mechanical properties :
#
#
# Convention : Reuss Voigt Hill
#
# Bulk Modulus (GPa) = 22.50756 39.23610 30.87183
# Shear Modulus (GPa) = 21.81146 31.34420 26.57783
#
# Velocity S-wave (km/s) = 3.09461 3.70973 3.41605
# Velocity P-wave (km/s) = 4.75932 5.96462 5.39573
#
# Compressibility (1/GPa) = 0.04442952
#
# Stress axis : x y z
#
# Youngs Moduli (GPa) = 27.29521 54.70236 80.96834
#
# Poissons Ratio (x) = -0.04984 0.46900
# Poissons Ratio (y) = -0.02487 0.52935
# Poissons Ratio (z) = 0.15810 0.35763
#
# Static dielectric constant tensor:
#      x y z
#    x 1.954260 0.012780 0.053050 
#    y 0.012780 1.914520 0.028480 
#    z 0.053050 0.028480 1.823040 
# 
# From -- ./inp_files/107629.got.cif
#   From: 2010.05.17/outbox.cif.g08.bks.cpg/sg2_54_cif.got.tgz:107629.got - 2010.06.03 11:33:40.
