data_PCOD9002180
_publ_section_title
;
Structure prediction by ZEFSAII (Michael W. Deem and Ramdas Pophale) SiO2 
 PCOD9002180
Probable space group: P -1
;
_chemical_formula_sum "Si O2"
_cell_formula_units_Z 16
_cell_length_a 11.844665
_cell_length_b 10.444290
_cell_length_c 9.745671
_cell_angle_alpha 63.724100
_cell_angle_beta 60.594714
_cell_angle_gamma 111.405097
_cell_volume 627.747983
_symmetry_space_group_name_H-M "P -1"
_symmetry_group_IT_number 2
_symmetry_cell_setting 'triclinic'
loop_
_space_group_symop_operation_xyz
x,y,z
-x,-y,-z
loop_
_atom_site_type_symbol
_atom_site_label
_atom_site_fract_x
_atom_site_fract_y
_atom_site_fract_z
Si Si1 0.268251 0.454765 0.132617
Si Si2 0.750122 0.824655 0.049727
Si Si3 0.129321 0.616261 0.041252
Si Si4 0.812308 0.551413 0.219271
Si Si5 0.689497 0.820190 0.792600
Si Si6 0.790591 0.212002 0.618566
Si Si7 0.938486 0.702527 0.386364
Si Si8 0.537482 0.904197 0.278079
O O1 0.195911 0.233449 0.267171
O O2 0.203108 0.442271 0.332421
O O3 0.197110 0.508299 0.037114
O O4 0.500525 0.651860 0.892313
O O5 0.758776 0.664855 0.146724
O O6 0.657648 0.857639 0.198697
O O7 0.628092 0.756579 0.018549
O O8 0.967901 0.062472 0.780542
O O9 0.319819 0.859214 0.859901
O O10 0.011039 0.635401 0.013170
O O11 0.959135 0.441535 0.337677
O O12 0.844796 0.608669 0.338129
O O13 0.637857 0.295030 0.426796
O O14 0.779696 0.050967 0.621798
O O15 0.587756 0.126827 0.757027
O O16 0.870556 0.235645 0.710376
#
# Coordination Sequence:
#
# PCOD9002180 Si02
#       8
#     2   2   2   2   2   2   2   2
#     4  10  21  39  63  90 116 147 200 245 296 345
#     4  11  23  38  58  86 121 161 194 234 286 351
#     4  10  21  37  60  89 117 155 190 244 294 342
#     4  11  23  40  56  88 124 157 197 231 287 351
#     4  10  21  40  62  87 118 154 193 244 293 347
#     4   9  21  36  57  90 117 150 193 239 301 343
#     4  10  21  36  58  89 118 152 191 243 289 345
#     4  11  21  37  60  86 122 155 190 244 293 345
#
# _framework density 25.487936000000001
#
# number of rings (size 3 to 8) (size 9 to 14) (size 15 to 20)
#    0.000    1.750    2.500    1.500    0.000   12.000 
#    0.000    0.625    0.000    0.750    0.000    0.000 
#    0.000    0.000    0.000    0.000    0.000    0.000 
#
# Total GULP energy -89251.145280 kJ/mol
# GULP energy per Si atom -5578.196580 kJ/mol
# Density = 2.542992 g / cm^3
# Si number density = 25.487936 Si / 1000 Ang^3
#
#
#
# Elastic Constant Matrix: (Units=GPa)
#
#
# Indices 1 2 3 4 5 6 
#
# 1 127.1663 46.7417 53.3827 -32.0702 0.4499 -23.5478
# 2 46.7417 97.3254 24.8342 -36.3953 -4.1100 -28.7612
# 3 53.3827 24.8342 87.7578 -42.5465 -0.3498 0.0448
# 4 -32.0702 -36.3953 -42.5465 49.1443 -1.1075 4.5592
# 5 0.4499 -4.1100 -0.3498 -1.1075 32.2634 -3.7065
# 6 -23.5478 -28.7612 0.0448 4.5592 -3.7065 50.0380
#
#
#
# Elastic Compliance Matrix: (Units=1/GPa)
#
#
# Indices 1 2 3 4 5 6 
#
# 1 0.012648 -0.003351 -0.007128 -0.000784 -0.000238 0.004086
# 2 -0.003351 0.018911 0.003617 0.014270 0.003936 0.008281
# 3 -0.007128 0.003617 0.023958 0.019067 0.001135 -0.002950
# 4 -0.000784 0.014270 0.019067 0.046645 0.004081 0.003868
# 5 -0.000238 0.003936 0.001135 0.004081 0.032130 0.004158
# 6 0.004086 0.008281 -0.002950 0.003868 0.004158 0.026626
#
#
# Mechanical properties :
#
#
# Convention : Reuss Voigt Hill
#
# Bulk Modulus (GPa) = 23.92854 62.46297 43.19575
# Shear Modulus (GPa) = 26.51500 38.77521 32.64511
#
# Velocity S-wave (km/s) = 3.22886 3.90464 3.58272
# Velocity P-wave (km/s) = 4.82797 6.69988 5.83942
#
# Compressibility (1/GPa) = 0.04179109
#
# Stress axis : x y z
#
# Youngs Moduli (GPa) = 79.06692 52.87933 41.73990
#
# Poissons Ratio (x) = 0.17720 0.29753
# Poissons Ratio (y) = 0.26495 -0.15096
# Poissons Ratio (z) = 0.56361 -0.19124
#
# Static dielectric constant tensor:
#      x y z
#    x 2.037500 -0.010090 -0.016530 
#    y -0.010090 2.154700 0.078290 
#    z -0.016530 0.078290 2.035720 
# 
# From -- ./inp_files/427543.got.cif
#   From: 2010.05.17/outbox.cif.g08.bks.cpg/sg2_214_cif.got.tgz:427543.got - 2010.06.03 11:33:40.
