data_PCOD9002046
_publ_section_title
;
Structure prediction by ZEFSAII (Michael W. Deem and Ramdas Pophale) SiO2 
 PCOD9002046
Probable space group: P -1
;
_chemical_formula_sum "Si O2"
_cell_formula_units_Z 16
_cell_length_a 15.127321
_cell_length_b 16.470624
_cell_length_c 5.227230
_cell_angle_alpha 134.500435
_cell_angle_beta 71.491249
_cell_angle_gamma 127.042434
_cell_volume 728.793620
_symmetry_space_group_name_H-M "P -1"
_symmetry_group_IT_number 2
_symmetry_cell_setting 'triclinic'
loop_
_space_group_symop_operation_xyz
x,y,z
-x,-y,-z
loop_
_atom_site_type_symbol
_atom_site_label
_atom_site_fract_x
_atom_site_fract_y
_atom_site_fract_z
Si Si1 0.428669 0.066188 0.679678
Si Si2 0.793060 0.002545 0.402571
Si Si3 0.246237 0.175256 0.457880
Si Si4 0.183736 0.406054 0.515938
Si Si5 0.607465 0.555718 0.347135
Si Si6 0.524800 0.151945 0.284792
Si Si7 0.964382 0.851132 0.601185
Si Si8 0.724315 0.433345 0.725287
O O1 0.301093 0.964912 0.478850
O O2 0.489289 0.177574 0.647035
O O3 0.500000 0.000000 0.500000
O O4 0.446061 0.136533 0.091565
O O5 0.759372 0.898509 0.439250
O O6 0.780005 0.925009 0.978399
O O7 0.924155 0.122898 0.575544
O O8 0.358966 0.318928 0.594761
O O9 0.143192 0.197722 0.590152
O O10 0.288295 0.390796 0.431549
O O11 0.076251 0.258669 0.374668
O O12 0.200931 0.475606 0.380989
O O13 0.204178 0.512767 0.960111
O O14 0.500000 0.500000 0.500000
O O15 0.374914 0.542256 0.067813
O O16 0.654042 0.271228 0.379137
O O17 0.500000 0.000000 0.000000
O O18 0.000000 0.000000 0.000000
#
# Coordination Sequence:
#
# PCOD9002046 Si02
#       8
#     2   2   2   2   2   2   2   2
#     4  10  22  39  59  87 115 146 195 260 308 359
#     4  11  22  36  58  84 113 161 198 249 296 342
#     4  10  22  35  54  82 123 154 205 234 284 354
#     4   9  21  35  52  81 116 157 199 235 287 350
#     4   9  22  34  50  77 119 163 190 229 280 354
#     4  10  21  39  62  86 112 148 196 253 309 361
#     4   9  20  36  58  83 121 163 205 244 285 349
#     4  10  21  36  57  80 117 154 200 237 301 358
#
# _framework density 21.954087999999999
#
# number of rings (size 3 to 8) (size 9 to 14) (size 15 to 20)
#    0.750    1.500    0.000    1.875    7.000    3.500 
#    0.000    0.000    0.000    0.000    0.000   21.000 
#    0.000    0.000    0.000    0.000    0.000    0.000 
#
# Total GULP energy -89157.054975 kJ/mol
# GULP energy per Si atom -5572.315936 kJ/mol
# Density = 2.190412 g / cm^3
# Si number density = 21.954088 Si / 1000 Ang^3
#
#
#
# Elastic Constant Matrix: (Units=GPa)
#
#
# Indices 1 2 3 4 5 6 
#
# 1 89.1060 49.8397 19.9484 -15.7431 0.8078 9.1478
# 2 49.8397 166.2803 39.0893 -6.6112 8.5835 9.6784
# 3 19.9484 39.0893 56.4816 -3.6514 10.5835 -17.8778
# 4 -15.7431 -6.6112 -3.6514 44.7805 -11.9340 9.4944
# 5 0.8078 8.5835 10.5835 -11.9340 23.6920 -7.0148
# 6 9.1478 9.6784 -17.8778 9.4944 -7.0148 24.7274
#
#
#
# Elastic Compliance Matrix: (Units=1/GPa)
#
#
# Indices 1 2 3 4 5 6 
#
# 1 0.017870 -0.001910 -0.010228 0.009800 0.004965 -0.015613
# 2 -0.001910 0.009391 -0.008696 0.001775 -0.001639 -0.010403
# 3 -0.010228 -0.008696 0.040483 -0.012233 -0.009347 0.038502
# 4 0.009800 0.001775 -0.012233 0.033663 0.014977 -0.021841
# 5 0.004965 -0.001639 -0.009347 0.014977 0.054907 0.001872
# 6 -0.015613 -0.010403 0.038502 -0.021841 0.001872 0.087042
#
#
# Mechanical properties :
#
#
# Convention : Reuss Voigt Hill
#
# Bulk Modulus (GPa) = 38.34912 58.84695 48.59804
# Shear Modulus (GPa) = 17.02323 32.17269 24.59796
#
# Velocity S-wave (km/s) = 2.78762 3.83228 3.35091
# Velocity P-wave (km/s) = 5.27891 6.81502 6.09555
#
# Compressibility (1/GPa) = 0.02607622
#
# Stress axis : x y z
#
# Youngs Moduli (GPa) = 55.96024 106.48266 24.70172
#
# Poissons Ratio (x) = 0.20334 0.25266
# Poissons Ratio (y) = 0.10686 0.21480
# Poissons Ratio (z) = 0.57239 0.92596
#
# Static dielectric constant tensor:
#      x y z
#    x 0.931050 -0.145830 1.749900 
#    y -0.145830 1.807040 0.315270 
#    z 1.749900 0.315270 -1.330870 
# 
# From -- ./inp_files/99276.got.cif
#   From: 2010.05.17/outbox.cif.g08.bks.cpg/sg2_50_cif.got.tgz:99276.got - 2010.06.03 11:33:40.
