data_PCOD9002117
_publ_section_title
;
Structure prediction by ZEFSAII (Michael W. Deem and Ramdas Pophale) SiO2 
 PCOD9002117
Probable space group: P -1
;
_chemical_formula_sum "Si O2"
_cell_formula_units_Z 16
_cell_length_a 24.020884
_cell_length_b 9.300331
_cell_length_c 9.195056
_cell_angle_alpha 30.526290
_cell_angle_beta 138.772712
_cell_angle_gamma 140.390828
_cell_volume 639.906572
_symmetry_space_group_name_H-M "P -1"
_symmetry_group_IT_number 2
_symmetry_cell_setting 'triclinic'
loop_
_space_group_symop_operation_xyz
x,y,z
-x,-y,-z
loop_
_atom_site_type_symbol
_atom_site_label
_atom_site_fract_x
_atom_site_fract_y
_atom_site_fract_z
Si Si1 0.090544 0.673934 0.428301
Si Si2 0.862886 0.634098 0.753476
Si Si3 0.722114 0.734575 0.193506
Si Si4 0.630437 0.463129 0.953136
Si Si5 0.981631 0.226463 0.382137
Si Si6 0.792759 0.632746 0.924239
Si Si7 0.625622 0.151485 0.676039
Si Si8 0.528788 0.864617 0.439506
O O1 0.000000 0.500000 0.500000
O O2 0.065537 0.498180 0.378569
O O3 0.131518 0.037176 0.174148
O O4 0.172102 0.607896 0.721557
O O5 0.812564 0.690822 0.462477
O O6 0.796084 0.583077 0.802831
O O7 0.935514 0.973508 0.634754
O O8 0.914359 0.397805 0.050303
O O9 0.646605 0.483477 0.361459
O O10 0.698241 0.648455 0.054893
O O11 0.712907 0.052714 0.936334
O O12 0.692594 0.565112 0.845668
O O13 0.543264 0.559495 0.692516
O O14 0.591619 0.118006 0.232478
O O15 0.000000 0.000000 0.500000
O O16 0.569322 0.118883 0.740977
O O17 0.568877 0.934553 0.622438
#
# Coordination Sequence:
#
# PCOD9002117 Si02
#       8
#     2   2   2   2   2   2   2   2
#     4  12  23  45  68  89 120 164 219 256 305 384
#     4  12  24  44  64  90 129 165 205 256 320 380
#     4  10  21  36  58  90 125 158 204 254 312 369
#     4  10  21  36  57  92 122 158 206 256 308 359
#     4  12  27  45  65  95 121 163 210 268 317 367
#     4  12  24  41  68  90 123 169 208 259 310 374
#     4   9  17  33  58  88 119 164 202 249 309 360
#     4   9  17  33  58  87 123 156 207 256 296 362
#
# _framework density 25.003651999999999
#
# number of rings (size 3 to 8) (size 9 to 14) (size 15 to 20)
#    0.000    1.250    2.500    3.750    1.750    3.000 
#    0.000    0.000    0.000    4.500    0.000    0.000 
#    0.000    0.000    0.000    0.000    0.000    0.000 
#
# Total GULP energy -89424.784040 kJ/mol
# GULP energy per Si atom -5589.049003 kJ/mol
# Density = 2.494674 g / cm^3
# Si number density = 25.003652 Si / 1000 Ang^3
#
#
#
# Elastic Constant Matrix: (Units=GPa)
#
#
# Indices 1 2 3 4 5 6 
#
# 1 109.2101 17.0885 31.0403 -1.9234 -5.7255 -3.2924
# 2 17.0885 73.8466 10.3906 1.7401 -5.2524 -21.8924
# 3 31.0403 10.3906 115.6227 -12.1836 17.7038 -14.7920
# 4 -1.9234 1.7401 -12.1836 30.1794 3.5695 -2.7859
# 5 -5.7255 -5.2524 17.7038 3.5695 29.8681 -1.1065
# 6 -3.2924 -21.8924 -14.7920 -2.7859 -1.1065 25.0957
#
#
#
# Elastic Compliance Matrix: (Units=1/GPa)
#
#
# Indices 1 2 3 4 5 6 
#
# 1 0.010718 -0.002531 -0.003788 -0.001442 0.003915 -0.003022
# 2 -0.002531 0.019310 0.000671 0.000203 0.003121 0.017069
# 3 -0.003788 0.000671 0.012617 0.006555 -0.008578 0.007875
# 4 -0.001442 0.000203 0.006555 0.037365 -0.008309 0.007633
# 5 0.003915 0.003121 -0.008578 -0.008309 0.040823 -0.000942
# 6 -0.003022 0.017069 0.007875 0.007633 -0.000942 0.059789
#
#
# Mechanical properties :
#
#
# Convention : Reuss Voigt Hill
#
# Bulk Modulus (GPa) = 31.89718 46.19089 39.04404
# Shear Modulus (GPa) = 24.70762 33.03932 28.87347
#
# Velocity S-wave (km/s) = 3.14691 3.63902 3.40188
# Velocity P-wave (km/s) = 5.09792 6.01418 5.57491
#
# Compressibility (1/GPa) = 0.03135074
#
# Stress axis : x y z
#
# Youngs Moduli (GPa) = 93.30067 51.78610 79.25758
#
# Poissons Ratio (x) = 0.13105 0.30023
# Poissons Ratio (y) = 0.23610 -0.05320
# Poissons Ratio (z) = 0.35342 -0.03476
#
# Static dielectric constant tensor:
#      x y z
#    x 2.131780 0.050140 -0.028650 
#    y 0.050140 2.072010 0.033910 
#    z -0.028650 0.033910 1.905080 
# 
# From -- ./inp_files/351979.got.cif
#   From: 2010.05.17/outbox.cif.g08.bks.cpg/sg2_176_cif.got.tgz:351979.got - 2010.06.03 11:33:40.
