data_PCOD9002017
_publ_section_title
;
Structure prediction by ZEFSAII (Michael W. Deem and Ramdas Pophale) SiO2 
 PCOD9002017
Probable space group: P -1
;
_chemical_formula_sum "Si O2"
_cell_formula_units_Z 14
_cell_length_a 7.154253
_cell_length_b 9.258371
_cell_length_c 11.329951
_cell_angle_alpha 106.303466
_cell_angle_beta 135.984957
_cell_angle_gamma 87.498691
_cell_volume 486.192566
_symmetry_space_group_name_H-M "P -1"
_symmetry_group_IT_number 2
_symmetry_cell_setting 'triclinic'
loop_
_space_group_symop_operation_xyz
x,y,z
-x,-y,-z
loop_
_atom_site_type_symbol
_atom_site_label
_atom_site_fract_x
_atom_site_fract_y
_atom_site_fract_z
Si Si1 0.483728 0.073021 0.190495
Si Si2 0.885263 0.357978 0.499243
Si Si3 0.283847 0.052406 0.498775
Si Si4 0.705743 0.660768 0.733932
Si Si5 0.279999 0.739869 0.941719
Si Si6 0.667486 0.351123 0.782024
Si Si7 0.875099 0.753637 0.190893
O O1 0.747426 0.214881 0.316366
O O2 0.616616 0.997933 0.342044
O O3 0.258887 0.168060 0.152139
O O4 0.343018 0.926628 0.015974
O O5 0.613324 0.367009 0.456962
O O6 0.000000 0.500000 0.500000
O O7 0.089397 0.322389 0.683270
O O8 0.991182 0.938960 0.307500
O O9 0.500000 0.000000 0.500000
O O10 0.375757 0.237447 0.583401
O O11 0.690844 0.524409 0.789951
O O12 0.955302 0.670922 0.758749
O O13 0.299374 0.675089 0.070173
O O14 0.554590 0.708197 0.999282
O O15 0.914460 0.295267 0.814850
#
# Coordination Sequence:
#
# PCOD9002017 Si02
#       7
#     2   2   2   2   2   2   2
#     4   8  19  34  58  81 111 155 187 226 289 336
#     4   9  19  35  56  87 116 141 193 236 285 337
#     4   8  16  35  56  84 112 145 187 235 274 337
#     4  10  21  36  56  86 117 153 185 234 294 331
#     4  11  21  38  63  80 117 156 191 230 280 346
#     4  10  21  36  61  86 116 149 190 242 278 335
#     4  10  21  37  60  89 109 150 199 229 281 344
#
# _framework density 28.795172999999998
#
# number of rings (size 3 to 8) (size 9 to 14) (size 15 to 20)
#    0.857    1.714    0.000    1.714    0.000    7.429 
#    0.000    0.000    3.143    8.571    0.000    0.000 
#    0.000    0.000    0.000    0.000    0.000    0.000 
#
# Total GULP energy -78421.219297 kJ/mol
# GULP energy per Si atom -5601.515664 kJ/mol
# Density = 2.872963 g / cm^3
# Si number density = 28.795173 Si / 1000 Ang^3
#
#
#
# Elastic Constant Matrix: (Units=GPa)
#
#
# Indices 1 2 3 4 5 6 
#
# 1 121.1172 26.8509 49.6227 -10.8271 37.5883 -0.7010
# 2 26.8509 149.5565 81.5222 20.6913 7.5994 8.7528
# 3 49.6227 81.5222 159.1307 1.9259 24.2614 6.1917
# 4 -10.8271 20.6913 1.9259 56.0381 2.9242 6.0228
# 5 37.5883 7.5994 24.2614 2.9242 56.9069 -3.1668
# 6 -0.7010 8.7528 6.1917 6.0228 -3.1668 46.6385
#
#
#
# Elastic Compliance Matrix: (Units=1/GPa)
#
#
# Indices 1 2 3 4 5 6 
#
# 1 0.011773 -0.001023 -0.002124 0.003109 -0.006907 -0.000220
# 2 -0.001023 0.010085 -0.005025 -0.003764 0.001629 -0.000644
# 3 -0.002124 -0.005025 0.009875 0.001300 -0.002243 -0.000720
# 4 0.003109 -0.003764 0.001300 0.020203 -0.003269 -0.002250
# 5 -0.006907 0.001629 -0.002243 -0.003269 0.023146 0.001882
# 6 -0.000220 -0.000644 -0.000720 -0.002250 0.001882 0.022073
#
#
# Mechanical properties :
#
#
# Convention : Reuss Voigt Hill
#
# Bulk Modulus (GPa) = 64.97518 82.86620 73.92069
# Shear Modulus (GPa) = 42.14806 50.03727 46.09266
#
# Velocity S-wave (km/s) = 3.83001 4.17309 4.00523
# Velocity P-wave (km/s) = 6.49401 7.21525 6.86411
#
# Compressibility (1/GPa) = 0.01539049
#
# Stress axis : x y z
#
# Youngs Moduli (GPa) = 84.93766 99.15650 101.26457
#
# Poissons Ratio (x) = 0.10139 0.21504
# Poissons Ratio (y) = 0.08686 0.50889
# Poissons Ratio (z) = 0.18037 0.49830
#
# Static dielectric constant tensor:
#      x y z
#    x 2.324450 -0.026600 -0.043450 
#    y -0.026600 2.251090 0.008010 
#    z -0.043450 0.008010 2.249910 
# 
# From -- ./inp_files/586236.got.cif
#   From: 2010.05.17/outbox.cif.g08.bks.cpg/sg2_294_cif.got.tgz:586236.got - 2010.06.03 11:33:40.
