data_PCOD9002313
_publ_section_title
;
Structure prediction by ZEFSAII (Michael W. Deem and Ramdas Pophale) SiO2 
 PCOD9002313
Probable space group: P -1
;
_chemical_formula_sum "Si O2"
_cell_formula_units_Z 16
_cell_length_a 12.208608
_cell_length_b 12.088499
_cell_length_c 12.086443
_cell_angle_alpha 130.367384
_cell_angle_beta 121.554547
_cell_angle_gamma 98.654394
_cell_volume 760.985649
_symmetry_space_group_name_H-M "P -1"
_symmetry_group_IT_number 2
_symmetry_cell_setting 'triclinic'
loop_
_space_group_symop_operation_xyz
x,y,z
-x,-y,-z
loop_
_atom_site_type_symbol
_atom_site_label
_atom_site_fract_x
_atom_site_fract_y
_atom_site_fract_z
Si Si1 0.102665 0.888257 0.904139
Si Si2 0.000945 0.193776 0.742043
Si Si3 0.733155 0.690650 0.232600
Si Si4 0.880309 0.555041 0.374698
Si Si5 0.542735 0.286060 0.380092
Si Si6 0.870047 0.754788 0.913606
Si Si7 0.505436 0.851134 0.969029
Si Si8 0.834619 0.266745 0.537796
O O1 0.020266 0.710081 0.652467
O O2 0.972508 0.776829 0.872796
O O3 0.329763 0.061982 0.165678
O O4 0.096661 0.044955 0.949300
O O5 0.926764 0.281019 0.706570
O O6 0.190026 0.302035 0.841022
O O7 0.834568 0.931291 0.462733
O O8 0.044872 0.233092 0.919865
O O9 0.821878 0.653184 0.343989
O O10 0.500000 0.500000 0.000000
O O11 0.679605 0.319106 0.160384
O O12 0.995933 0.558730 0.348671
O O13 0.644775 0.513976 0.631574
O O14 0.515086 0.277603 0.226698
O O15 0.692716 0.282494 0.483332
O O16 0.500000 0.000000 0.000000
O O17 0.704896 0.026484 0.257093
#
# Coordination Sequence:
#
# PCOD9002313 Si02
#       8
#     2   2   2   2   2   2   2   2
#     4  11  23  40  62  92 122 163 214 253 312 368
#     4  10  22  41  61  91 128 164 206 257 308 370
#     4  10  21  37  64  93 121 163 208 260 311 360
#     4  11  20  38  65  92 125 159 205 266 317 361
#     4  11  23  39  61  91 124 169 204 255 311 368
#     4  11  24  42  60  89 128 169 208 254 306 376
#     4  10  21  36  59  92 125 157 201 255 307 369
#     4  10  23  40  62  94 126 160 211 259 312 369
#
# _framework density 21.025364
#
# number of rings (size 3 to 8) (size 9 to 14) (size 15 to 20)
#    0.000    1.500    3.750    1.125    0.000    6.500 
#    0.000    0.625    0.000    0.000    0.000    0.000 
#    0.000    0.000    0.000    0.000    0.000    0.000 
#
# Total GULP energy -89468.877175 kJ/mol
# GULP energy per Si atom -5591.804823 kJ/mol
# Density = 2.097751 g / cm^3
# Si number density = 21.025364 Si / 1000 Ang^3
#
#
#
# Elastic Constant Matrix: (Units=GPa)
#
#
# Indices 1 2 3 4 5 6 
#
# 1 50.7464 26.2620 5.8136 -4.9436 22.2974 -0.9705
# 2 26.2620 108.2164 22.0364 -12.6720 -3.1628 6.8826
# 3 5.8136 22.0364 65.0404 -3.1961 10.2132 8.8199
# 4 -4.9436 -12.6720 -3.1961 40.5840 9.8559 6.9207
# 5 22.2974 -3.1628 10.2132 9.8559 35.1226 1.5518
# 6 -0.9705 6.8826 8.8199 6.9207 1.5518 21.6962
#
#
#
# Elastic Compliance Matrix: (Units=1/GPa)
#
#
# Indices 1 2 3 4 5 6 
#
# 1 0.037985 -0.010181 0.004672 0.008413 -0.028857 0.002410
# 2 -0.010181 0.013230 -0.004381 0.001063 0.008800 -0.003840
# 3 0.004672 -0.004381 0.019118 0.004254 -0.009812 -0.006828
# 4 0.008413 0.001063 0.004254 0.031793 -0.014928 -0.010764
# 5 -0.028857 0.008800 -0.009812 -0.014928 0.054593 0.000763
# 6 0.002410 -0.003840 -0.006828 -0.010764 0.000763 0.053571
#
#
# Mechanical properties :
#
#
# Convention : Reuss Voigt Hill
#
# Bulk Modulus (GPa) = 19.78171 36.91412 28.34791
# Shear Modulus (GPa) = 20.24955 30.80664 25.52810
#
# Velocity S-wave (km/s) = 3.10675 3.83196 3.48826
# Velocity P-wave (km/s) = 4.72209 6.09702 5.45306
#
# Compressibility (1/GPa) = 0.05055174
#
# Stress axis : x y z
#
# Youngs Moduli (GPa) = 26.32643 75.58837 52.30800
#
# Poissons Ratio (x) = 0.76957 -0.24440
# Poissons Ratio (y) = 0.26803 0.22917
# Poissons Ratio (z) = -0.12300 0.33117
#
# Static dielectric constant tensor:
#      x y z
#    x 1.783340 -0.022520 -0.014130 
#    y -0.022520 1.748920 0.009890 
#    z -0.014130 0.009890 1.757140 
# 
# From -- ./inp_files/370538.got.cif
#   From: 2010.05.17/outbox.cif.g08.bks.cpg/sg2_186_cif.got.tgz:370538.got - 2010.06.03 11:33:40.
