data_PCOD9002730
_publ_section_title
;
Structure prediction by ZEFSAII (Michael W. Deem and Ramdas Pophale) SiO2 
 PCOD9002730
Probable space group: P -1
;
_chemical_formula_sum "Si O2"
_cell_formula_units_Z 11
_cell_length_a 8.447453
_cell_length_b 10.201803
_cell_length_c 7.280066
_cell_angle_alpha 86.192677
_cell_angle_beta 78.458678
_cell_angle_gamma 42.481652
_cell_volume 412.009722
_symmetry_space_group_name_H-M "P -1"
_symmetry_group_IT_number 2
_symmetry_cell_setting 'triclinic'
loop_
_space_group_symop_operation_xyz
x,y,z
-x,-y,-z
loop_
_atom_site_type_symbol
_atom_site_label
_atom_site_fract_x
_atom_site_fract_y
_atom_site_fract_z
Si Si1 0.752131 0.002869 0.613726
Si Si2 0.746244 0.573435 0.924593
Si Si3 0.229729 0.951726 0.965465
Si Si4 0.758905 0.773850 0.225197
Si Si5 0.734143 0.314029 0.570599
Si Si6 0.500000 0.500000 0.000000
O O1 0.001639 0.784627 0.520058
O O2 0.758010 0.006401 0.832937
O O3 0.483384 0.115404 0.623420
O O4 0.758617 0.146765 0.525148
O O5 0.977838 0.435221 0.756138
O O6 0.473186 0.716988 0.894480
O O7 0.743970 0.703678 0.038531
O O8 0.733187 0.445889 0.052248
O O9 0.241692 0.070588 0.822893
O O10 0.000000 0.000000 0.000000
O O11 0.500000 0.500000 0.500000
O O12 0.675074 0.362981 0.794093
#
# Coordination Sequence:
#
# PCOD9002730 Si02
#       6
#     2   2   2   2   2   1
#     4  10  23  44  62 104 141 181 240 284 350 424
#     4  10  21  36  64 100 135 182 232 282 343 420
#     4  11  22  37  70 107 135 187 240 284 353 424
#     4  10  21  39  67  99 143 188 226 292 358 405
#     4  11  26  42  73 102 144 187 230 296 351 411
#     4  12  22  46  70 108 136 186 248 280 346 432
#
# _framework density 26.698402000000002
#
# number of rings (size 3 to 8) (size 9 to 14) (size 15 to 20)
#    0.000    1.455    3.636    3.273    5.091    1.455 
#    0.000    3.636    0.000    5.455    0.000    0.000 
#    0.000    0.000    0.000    0.000    0.000    0.000 
#
# Total GULP energy -61323.264427 kJ/mol
# GULP energy per Si atom -5574.842221 kJ/mol
# Density = 2.663763 g / cm^3
# Si number density = 26.698402 Si / 1000 Ang^3
#
#
#
# Elastic Constant Matrix: (Units=GPa)
#
#
# Indices 1 2 3 4 5 6 
#
# 1 157.4083 67.2764 31.9295 41.5763 -28.7948 -24.1256
# 2 67.2764 173.3841 60.9740 43.2366 -25.8825 -49.9177
# 3 31.9295 60.9740 76.3873 41.3296 -8.5717 -26.9168
# 4 41.5763 43.2366 41.3296 49.5683 -9.5174 -21.2066
# 5 -28.7948 -25.8825 -8.5717 -9.5174 49.8780 23.9425
# 6 -24.1256 -49.9177 -26.9168 -21.2066 23.9425 54.9428
#
#
#
# Elastic Compliance Matrix: (Units=1/GPa)
#
#
# Indices 1 2 3 4 5 6 
#
# 1 0.009367 -0.002328 0.001690 -0.007192 0.003912 -0.001655
# 2 -0.002328 0.010126 -0.004965 -0.000336 0.000377 0.005452
# 3 0.001690 -0.004965 0.027606 -0.019096 -0.002080 0.003292
# 4 -0.007192 -0.000336 -0.019096 0.044233 -0.001530 0.004921
# 5 0.003912 0.000377 -0.002080 -0.001530 0.027360 -0.011473
# 6 -0.001655 0.005452 0.003292 0.004921 -0.011473 0.030939
#
#
# Mechanical properties :
#
#
# Convention : Reuss Voigt Hill
#
# Bulk Modulus (GPa) = 27.86014 80.83773 54.34894
# Shear Modulus (GPa) = 28.93491 47.34447 38.13969
#
# Velocity S-wave (km/s) = 3.29564 4.21563 3.78370
# Velocity P-wave (km/s) = 4.99394 7.35114 6.28405
#
# Compressibility (1/GPa) = 0.03589357
#
# Stress axis : x y z
#
# Youngs Moduli (GPa) = 106.76305 98.75186 36.22381
#
# Poissons Ratio (x) = 0.22986 -0.06122
# Poissons Ratio (y) = 0.24851 0.17985
# Poissons Ratio (z) = -0.18042 0.49030
#
# Static dielectric constant tensor:
#      x y z
#    x 1.959290 -0.414560 0.286680 
#    y -0.414560 1.639450 0.334160 
#    z 0.286680 0.334160 1.851280 
# 
# From -- ./inp_files/163961.got.cif
#   From: 2010.05.17/outbox.cif.g08.bks.cpg/sg2_82_cif.got.tgz:163961.got - 2010.06.03 11:33:40.
