data_PCOD9002618
_publ_section_title
;
Structure prediction by ZEFSAII (Michael W. Deem and Ramdas Pophale) SiO2 
 PCOD9002618
Probable space group: P -1
;
_chemical_formula_sum "Si O2"
_cell_formula_units_Z 16
_cell_length_a 6.259761
_cell_length_b 16.379701
_cell_length_c 15.003616
_cell_angle_alpha 144.839911
_cell_angle_beta 114.418730
_cell_angle_gamma 54.946413
_cell_volume 720.038819
_symmetry_space_group_name_H-M "P -1"
_symmetry_group_IT_number 2
_symmetry_cell_setting 'triclinic'
loop_
_space_group_symop_operation_xyz
x,y,z
-x,-y,-z
loop_
_atom_site_type_symbol
_atom_site_label
_atom_site_fract_x
_atom_site_fract_y
_atom_site_fract_z
Si Si1 0.320343 0.707883 0.374641
Si Si2 0.341596 0.022124 0.117128
Si Si3 0.976854 0.170023 0.355136
Si Si4 0.723858 0.875569 0.360804
Si Si5 0.133451 0.522799 0.285228
Si Si6 0.645530 0.591645 0.152532
Si Si7 0.764929 0.009443 0.294243
Si Si8 0.511513 0.759915 0.780644
O O1 0.337208 0.548388 0.277895
O O2 0.461676 0.685249 0.286302
O O3 0.408742 0.803490 0.544244
O O4 0.011016 0.818011 0.402025
O O5 0.633878 0.945980 0.141886
O O6 0.332879 0.157426 0.169516
O O7 0.162700 0.093163 0.235162
O O8 0.323907 0.886111 0.934591
O O9 0.013911 0.305213 0.536971
O O10 0.998088 0.027125 0.297147
O O11 0.683794 0.256866 0.339410
O O12 0.676399 0.719457 0.208511
O O13 0.500000 0.000000 0.500000
O O14 0.761767 0.931947 0.319409
O O15 0.286565 0.393762 0.270223
O O16 0.928533 0.492949 0.161291
O O17 0.500000 0.500000 0.000000
#
# Coordination Sequence:
#
# PCOD9002618 Si02
#       8
#     2   2   2   2   2   2   2   2
#     4  10  22  40  61  91 127 162 219 266 311 384
#     4  10  22  38  62  92 134 162 214 267 319 384
#     4  10  21  39  66  94 125 168 215 272 316 381
#     4  11  23  39  66  94 123 167 220 267 316 380
#     4  10  23  41  65  89 128 170 216 259 322 388
#     4  11  25  42  63  92 132 172 212 265 325 380
#     4  10  21  36  62  94 125 163 213 266 318 374
#     4  10  22  41  59  95 128 170 210 267 324 384
#
# _framework density 22.221022999999999
#
# number of rings (size 3 to 8) (size 9 to 14) (size 15 to 20)
#    0.000    1.750    1.250    1.875    3.500    5.500 
#    0.000    1.250    0.000    0.000    0.000    0.000 
#    0.000    0.000    0.000    0.000    0.000    0.000 
#
# Total GULP energy -89249.980719 kJ/mol
# GULP energy per Si atom -5578.123795 kJ/mol
# Density = 2.217045 g / cm^3
# Si number density = 22.221023 Si / 1000 Ang^3
#
#
#
# Elastic Constant Matrix: (Units=GPa)
#
#
# Indices 1 2 3 4 5 6 
#
# 1 88.8766 46.6485 25.2575 5.3422 -3.6490 31.0893
# 2 46.6485 142.7411 26.7870 -4.8624 7.3535 33.5606
# 3 25.2575 26.7870 73.1319 -22.6312 20.4238 7.3982
# 4 5.3422 -4.8624 -22.6312 27.3444 -5.6112 1.0202
# 5 -3.6490 7.3535 20.4238 -5.6112 36.2250 -14.8305
# 6 31.0893 33.5606 7.3982 1.0202 -14.8305 40.1827
#
#
#
# Elastic Compliance Matrix: (Units=1/GPa)
#
#
# Indices 1 2 3 4 5 6 
#
# 1 0.019350 -0.002749 -0.008179 -0.010397 0.001230 -0.010452
# 2 -0.002749 0.010250 0.000181 0.001655 -0.005735 -0.008626
# 3 -0.008179 0.000181 0.028034 0.021863 -0.015422 -0.005231
# 4 -0.010397 0.001655 0.021863 0.055919 -0.005360 -0.000761
# 5 0.001230 -0.005735 -0.015422 -0.005360 0.046587 0.024008
# 6 -0.010452 -0.008626 -0.005231 -0.000761 0.024008 0.050020
#
#
# Mechanical properties :
#
#
# Convention : Reuss Voigt Hill
#
# Bulk Modulus (GPa) = 27.66992 55.79287 41.73140
# Shear Modulus (GPa) = 20.51687 34.48752 27.50219
#
# Velocity S-wave (km/s) = 3.04190 3.94384 3.52186
# Velocity P-wave (km/s) = 4.98163 6.77504 5.94634
#
# Compressibility (1/GPa) = 0.03614033
#
# Stress axis : x y z
#
# Youngs Moduli (GPa) = 51.67878 97.56162 35.67065
#
# Poissons Ratio (x) = 0.26819 0.29177
# Poissons Ratio (y) = 0.14206 -0.00647
# Poissons Ratio (z) = 0.42271 -0.01769
#
# Static dielectric constant tensor:
#      x y z
#    x 1.904710 -0.010380 0.030730 
#    y -0.010380 1.832560 0.007480 
#    z 0.030730 0.007480 1.823360 
# 
# From -- ./inp_files/484530.got.cif
#   From: 2010.05.17/outbox.cif.g08.bks.cpg/sg2_243_cif.got.tgz:484530.got - 2010.06.03 11:33:40.
