data_PCOD9002774
_publ_section_title
;
Structure prediction by ZEFSAII (Michael W. Deem and Ramdas Pophale) SiO2 
 PCOD9002774
Probable space group: P -1
;
_chemical_formula_sum "Si O2"
_cell_formula_units_Z 16
_cell_length_a 8.421372
_cell_length_b 5.302239
_cell_length_c 27.254750
_cell_angle_alpha 54.668032
_cell_angle_beta 138.459463
_cell_angle_gamma 118.488547
_cell_volume 656.203379
_symmetry_space_group_name_H-M "P -1"
_symmetry_group_IT_number 2
_symmetry_cell_setting 'triclinic'
loop_
_space_group_symop_operation_xyz
x,y,z
-x,-y,-z
loop_
_atom_site_type_symbol
_atom_site_label
_atom_site_fract_x
_atom_site_fract_y
_atom_site_fract_z
Si Si1 0.065553 0.369850 0.476437
Si Si2 0.566649 0.517647 0.811833
Si Si3 0.109993 0.202776 0.080647
Si Si4 0.897716 0.666306 0.241126
Si Si5 0.284743 0.232202 0.924499
Si Si6 0.448336 0.756766 0.369535
Si Si7 0.556298 0.112879 0.128267
Si Si8 0.422685 0.507168 0.675258
O O1 0.353633 0.411845 0.533912
O O2 0.000000 0.500000 0.500000
O O3 0.865963 0.513275 0.380781
O O4 0.000000 0.000000 0.500000
O O5 0.800368 0.740693 0.849157
O O6 0.298244 0.604469 0.753953
O O7 0.552560 0.407457 0.765193
O O8 0.581181 0.213081 0.883811
O O9 0.365866 0.201606 0.113938
O O10 0.920275 0.909284 0.070183
O O11 0.000000 0.500000 0.000000
O O12 0.837022 0.722452 0.162984
O O13 0.170676 0.633730 0.321309
O O14 0.810018 0.973430 0.213554
O O15 0.380717 0.579426 0.921561
O O16 0.500000 0.000000 0.000000
O O17 0.519267 0.688272 0.337020
O O18 0.487878 0.124353 0.349831
#
# Coordination Sequence:
#
# PCOD9002774 Si02
#       8
#     2   2   2   2   2   2   2   2
#     4   8  16  34  55  90 131 161 215 270 319 388
#     4  10  24  41  59  93 128 169 215 275 328 389
#     4  12  24  45  66  91 126 169 216 271 336 393
#     4  10  24  39  58  90 127 162 213 270 322 388
#     4  12  24  44  66  89 125 167 216 272 335 395
#     4  10  21  36  64  96 124 175 219 268 330 394
#     4  10  24  45  61  92 132 163 215 278 327 395
#     4  10  21  36  64  94 127 173 220 270 327 394
#
# _framework density 24.382681999999999
#
# number of rings (size 3 to 8) (size 9 to 14) (size 15 to 20)
#    0.750    1.000    2.500    0.750    5.250    2.000 
#    0.000    0.625    0.000    0.000    0.000   12.250 
#    0.000    0.000    0.000    0.000    0.000    0.000 
#
# Total GULP energy -89110.161393 kJ/mol
# GULP energy per Si atom -5569.385087 kJ/mol
# Density = 2.432719 g / cm^3
# Si number density = 24.382682 Si / 1000 Ang^3
#
#
#
# Elastic Constant Matrix: (Units=GPa)
#
#
# Indices 1 2 3 4 5 6 
#
# 1 62.0710 15.9447 17.8796 5.9546 18.0247 0.0968
# 2 15.9447 83.2607 10.8423 -4.0051 8.9318 7.0656
# 3 17.8796 10.8423 93.8415 23.6101 27.3393 -4.6198
# 4 5.9546 -4.0051 23.6101 27.6151 1.1050 5.9358
# 5 18.0247 8.9318 27.3393 1.1050 41.2274 -0.0448
# 6 0.0968 7.0656 -4.6198 5.9358 -0.0448 34.8286
#
#
#
# Elastic Compliance Matrix: (Units=1/GPa)
#
#
# Indices 1 2 3 4 5 6 
#
# 1 0.019657 -0.003313 0.000260 -0.004944 -0.007915 0.001484
# 2 -0.003313 0.013605 -0.002628 0.005810 0.000084 -0.004090
# 3 0.000260 -0.002628 0.019020 -0.017527 -0.011681 0.006027
# 4 -0.004944 0.005810 -0.017527 0.055443 0.011025 -0.012925
# 5 -0.007915 0.000084 -0.011681 0.011025 0.035145 -0.003378
# 6 0.001484 -0.004090 0.006027 -0.012925 -0.003378 0.032535
#
#
# Mechanical properties :
#
#
# Convention : Reuss Voigt Hill
#
# Bulk Modulus (GPa) = 24.43799 36.50072 30.46935
# Shear Modulus (GPa) = 24.94938 33.70131 29.32535
#
# Velocity S-wave (km/s) = 3.20229 3.72180 3.47178
# Velocity P-wave (km/s) = 4.87004 5.78546 5.34737
#
# Compressibility (1/GPa) = 0.04091990
#
# Stress axis : x y z
#
# Youngs Moduli (GPa) = 50.87251 73.50385 52.57700
#
# Poissons Ratio (x) = 0.24352 -0.01369
# Poissons Ratio (y) = 0.16854 0.13818
# Poissons Ratio (z) = -0.01325 0.19318
#
# Static dielectric constant tensor:
#      x y z
#    x 2.083950 -0.111350 -0.033310 
#    y -0.111350 2.024640 0.026750 
#    z -0.033310 0.026750 1.996080 
# 
# From -- ./inp_files/622186.got.cif
#   From: 2010.05.17/outbox.cif.g08.bks.cpg/sg2_312_cif.got.tgz:622186.got - 2010.06.03 11:33:40.
