data_PCOD9002720
_publ_section_title
;
Structure prediction by ZEFSAII (Michael W. Deem and Ramdas Pophale) SiO2 
 PCOD9002720
Probable space group: P -1
;
_chemical_formula_sum "Si O2"
_cell_formula_units_Z 16
_cell_length_a 14.363325
_cell_length_b 14.827844
_cell_length_c 9.325361
_cell_angle_alpha 150.498565
_cell_angle_beta 56.157545
_cell_angle_gamma 125.743501
_cell_volume 787.952403
_symmetry_space_group_name_H-M "P -1"
_symmetry_group_IT_number 2
_symmetry_cell_setting 'triclinic'
loop_
_space_group_symop_operation_xyz
x,y,z
-x,-y,-z
loop_
_atom_site_type_symbol
_atom_site_label
_atom_site_fract_x
_atom_site_fract_y
_atom_site_fract_z
Si Si1 0.265906 0.679579 0.444232
Si Si2 0.873673 0.155101 0.411602
Si Si3 0.723264 0.986609 0.876752
Si Si4 0.676640 0.553041 0.689620
Si Si5 0.477742 0.693744 0.727601
Si Si6 0.682701 0.064458 0.696335
Si Si7 0.866408 0.815571 0.720346
Si Si8 0.517249 0.709096 0.206775
O O1 0.163612 0.685361 0.431580
O O2 0.264507 0.490535 0.273641
O O3 0.388909 0.735222 0.333001
O O4 0.266241 0.836309 0.781825
O O5 0.782819 0.104704 0.548479
O O6 0.004661 0.209705 0.429168
O O7 0.863043 0.974208 0.064934
O O8 0.597356 0.846267 0.813906
O O9 0.819933 0.883873 0.707904
O O10 0.732521 0.045718 0.785638
O O11 0.588635 0.365015 0.447180
O O12 0.773686 0.630772 0.597704
O O13 0.597842 0.700905 0.989260
O O14 0.500000 0.500000 0.500000
O O15 0.391036 0.778088 0.014779
O O16 0.590834 0.870141 0.466958
O O17 0.500000 0.500000 0.000000
#
# Coordination Sequence:
#
# PCOD9002720 Si02
#       8
#     2   2   2   2   2   2   2   2
#     4  10  21  38  62  91 127 163 200 253 314 376
#     4  10  24  41  62  89 120 169 220 256 301 369
#     4  11  21  39  65  89 127 166 197 255 319 375
#     4  11  21  40  63  94 126 163 203 262 314 374
#     4  12  24  38  63  98 133 165 197 254 328 383
#     4  12  23  41  64  95 129 165 209 254 315 378
#     4  10  22  43  63  87 122 166 217 261 308 359
#     4  10  21  36  63  97 126 156 210 254 309 380
#
# _framework density 20.305793999999999
#
# number of rings (size 3 to 8) (size 9 to 14) (size 15 to 20)
#    0.000    1.250    5.000    1.875    1.750    1.500 
#    0.000    0.625    0.000    0.000    0.000    0.000 
#    0.000    0.000    0.000    0.000    0.000    0.000 
#
# Total GULP energy -89387.357051 kJ/mol
# GULP energy per Si atom -5586.709816 kJ/mol
# Density = 2.025958 g / cm^3
# Si number density = 20.305794 Si / 1000 Ang^3
#
#
#
# Elastic Constant Matrix: (Units=GPa)
#
#
# Indices 1 2 3 4 5 6 
#
# 1 146.6640 32.9691 35.0838 -12.9253 -28.2063 -8.4191
# 2 32.9691 52.0223 18.5524 -11.3456 -11.2585 -15.0529
# 3 35.0838 18.5524 78.0280 -12.2438 -10.9303 0.6279
# 4 -12.9253 -11.3456 -12.2438 20.9447 4.5257 -0.5655
# 5 -28.2063 -11.2585 -10.9303 4.5257 27.3665 3.1736
# 6 -8.4191 -15.0529 0.6279 -0.5655 3.1736 27.2072
#
#
#
# Elastic Compliance Matrix: (Units=1/GPa)
#
#
# Indices 1 2 3 4 5 6 
#
# 1 0.009682 -0.003323 -0.002334 0.001214 0.007436 0.000369
# 2 -0.003323 0.030623 -0.003463 0.012083 0.003962 0.015784
# 3 -0.002334 -0.003463 0.015841 0.005437 0.001959 -0.003119
# 4 0.001214 0.012083 0.005437 0.058949 -0.002333 0.008433
# 5 0.007436 0.003962 0.001959 -0.002333 0.047131 -0.001098
# 6 0.000369 0.015784 -0.003119 0.008433 -0.001098 0.045977
#
#
# Mechanical properties :
#
#
# Convention : Reuss Voigt Hill
#
# Bulk Modulus (GPa) = 26.38053 49.99165 38.18609
# Shear Modulus (GPa) = 20.91357 27.77760 24.34559
#
# Velocity S-wave (km/s) = 3.21274 3.70261 3.46634
# Velocity P-wave (km/s) = 5.17514 6.55377 5.90483
#
# Compressibility (1/GPa) = 0.03790674
#
# Stress axis : x y z
#
# Youngs Moduli (GPa) = 103.28604 32.65525 63.12536
#
# Poissons Ratio (x) = 0.10850 0.14734
# Poissons Ratio (y) = 0.34317 0.21861
# Poissons Ratio (z) = 0.24108 0.11309
#
# Static dielectric constant tensor:
#      x y z
#    x 1.736280 -0.032630 -0.004460 
#    y -0.032630 1.720810 -0.004580 
#    z -0.004460 -0.004580 1.752610 
# 
# From -- ./inp_files/179950.got.cif
#   From: 2010.05.17/outbox.cif.g08.bks.cpg/sg2_90_cif.got.tgz:179950.got - 2010.06.03 11:33:40.
