data_PCOD9002482
_publ_section_title
;
Structure prediction by ZEFSAII (Michael W. Deem and Ramdas Pophale) SiO2 
 PCOD9002482
Probable space group: P -1
;
_chemical_formula_sum "Si O2"
_cell_formula_units_Z 12
_cell_length_a 5.146871
_cell_length_b 12.914293
_cell_length_c 13.794153
_cell_angle_alpha 64.880977
_cell_angle_beta 70.673400
_cell_angle_gamma 41.636440
_cell_volume 551.418131
_symmetry_space_group_name_H-M "P -1"
_symmetry_group_IT_number 2
_symmetry_cell_setting 'triclinic'
loop_
_space_group_symop_operation_xyz
x,y,z
-x,-y,-z
loop_
_atom_site_type_symbol
_atom_site_label
_atom_site_fract_x
_atom_site_fract_y
_atom_site_fract_z
Si Si1 0.181854 0.725335 0.686513
Si Si2 0.230452 0.133188 0.127913
Si Si3 0.019981 0.141816 0.725605
Si Si4 0.616523 0.080492 0.396440
Si Si5 0.774137 0.453141 0.575806
Si Si6 0.636542 0.123606 0.923699
O O1 0.256747 0.837314 0.603868
O O2 0.529336 0.553664 0.662566
O O3 0.127322 0.746084 0.801790
O O4 0.788137 0.785095 0.667002
O O5 0.601895 0.012834 0.201340
O O6 0.286458 0.001515 0.111463
O O7 0.275088 0.214792 0.005204
O O8 0.042461 0.265153 0.640562
O O9 0.667059 0.224766 0.811383
O O10 0.026295 0.062451 0.660594
O O11 0.500000 0.000000 0.500000
O O12 0.500000 0.500000 0.500000
O O13 0.000000 0.500000 0.500000
O O14 0.000000 0.000000 0.000000
#
# Coordination Sequence:
#
# PCOD9002482 Si02
#       6
#     2   2   2   2   2   2
#     4  11  22  39  58  87 119 157 195 250 297 349
#     4   9  19  35  63  90 117 150 201 253 301 353
#     4  10  21  36  61  87 120 162 201 244 300 356
#     4  11  21  36  59  86 113 155 208 251 286 344
#     4  12  27  43  59  87 129 168 199 242 300 357
#     4   9  17  35  60  92 116 146 198 255 306 349
#
# _framework density 21.762069
#
# number of rings (size 3 to 8) (size 9 to 14) (size 15 to 20)
#    0.000    1.667    1.667    3.500    2.333    1.333 
#    0.000    0.833    0.000    9.000    0.000    0.000 
#    0.000    0.000    0.000    0.000    0.000    0.000 
#
# Total GULP energy -66855.988082 kJ/mol
# GULP energy per Si atom -5571.332340 kJ/mol
# Density = 2.171254 g / cm^3
# Si number density = 21.762069 Si / 1000 Ang^3
#
#
#
# Elastic Constant Matrix: (Units=GPa)
#
#
# Indices 1 2 3 4 5 6 
#
# 1 69.8843 -0.3632 5.5184 0.6233 -10.7891 12.7341
# 2 -0.3632 74.0884 15.9344 20.2159 -3.4646 11.0104
# 3 5.5184 15.9344 99.8538 18.6023 -20.5736 -2.9407
# 4 0.6233 20.2159 18.6023 38.7196 8.7442 -6.0686
# 5 -10.7891 -3.4646 -20.5736 8.7442 29.6920 4.9335
# 6 12.7341 11.0104 -2.9407 -6.0686 4.9335 20.6508
#
#
#
# Elastic Compliance Matrix: (Units=1/GPa)
#
#
# Indices 1 2 3 4 5 6 
#
# 1 0.022507 0.008723 0.003870 -0.015898 0.021163 -0.027706
# 2 0.008723 0.024808 0.003376 -0.024058 0.020488 -0.030090
# 3 0.003870 0.003376 0.015744 -0.015430 0.019088 -0.011039
# 4 -0.015898 -0.024058 -0.015430 0.064519 -0.046674 0.050544
# 5 0.021163 0.020488 0.019088 -0.046674 0.079706 -0.054013
# 6 -0.027706 -0.030090 -0.011039 0.050544 -0.054013 0.107737
#
#
# Mechanical properties :
#
#
# Convention : Reuss Voigt Hill
#
# Bulk Modulus (GPa) = 10.52655 31.77840 21.15247
# Shear Modulus (GPa) = 15.88573 32.66159 24.27366
#
# Velocity S-wave (km/s) = 2.70473 3.87828 3.34340
# Velocity P-wave (km/s) = 3.82122 5.88975 4.96442
#
# Compressibility (1/GPa) = 0.09499787
#
# Stress axis : x y z
#
# Youngs Moduli (GPa) = 44.43145 40.30898 63.51555
#
# Poissons Ratio (x) = -0.35161 -0.24582
# Poissons Ratio (y) = -0.38757 -0.21444
# Poissons Ratio (z) = -0.17196 -0.13609
#
# Static dielectric constant tensor:
#      x y z
#    x 1.974910 -0.021770 0.068970 
#    y -0.021770 1.808110 0.071740 
#    z 0.068970 0.071740 2.078410 
# 
# From -- ./inp_files/24240.got.cif
#   From: 2010.05.17/outbox.cif.g08.bks.cpg/sg2_13_cif.got.tgz:24240.got - 2010.06.03 11:33:40.
