data_PCOD9002231
_publ_section_title
;
Structure prediction by ZEFSAII (Michael W. Deem and Ramdas Pophale) SiO2 
 PCOD9002231
Probable space group: P -1
;
_chemical_formula_sum "Si O2"
_cell_formula_units_Z 14
_cell_length_a 12.029570
_cell_length_b 13.352469
_cell_length_c 8.642841
_cell_angle_alpha 50.662533
_cell_angle_beta 78.804036
_cell_angle_gamma 41.015643
_cell_volume 583.899083
_symmetry_space_group_name_H-M "P -1"
_symmetry_group_IT_number 2
_symmetry_cell_setting 'triclinic'
loop_
_space_group_symop_operation_xyz
x,y,z
-x,-y,-z
loop_
_atom_site_type_symbol
_atom_site_label
_atom_site_fract_x
_atom_site_fract_y
_atom_site_fract_z
Si Si1 0.977308 0.753690 0.157304
Si Si2 0.589356 0.789818 0.088817
Si Si3 0.088002 0.504252 0.109375
Si Si4 0.202689 0.823772 0.362726
Si Si5 0.592383 0.571942 0.534071
Si Si6 0.279848 0.093888 0.621808
Si Si7 0.045605 0.716304 0.651799
O O1 0.929061 0.690793 0.104237
O O2 0.224384 0.526569 0.335295
O O3 0.862879 0.817167 0.281207
O O4 0.920695 0.945813 0.913178
O O5 0.504905 0.751200 0.251073
O O6 0.818913 0.513797 0.265837
O O7 0.500000 0.000000 0.000000
O O8 0.498522 0.879518 0.852423
O O9 0.252403 0.262902 0.392585
O O10 0.116449 0.612923 0.906444
O O11 0.000000 0.500000 0.000000
O O12 0.387378 0.708157 0.528449
O O13 0.298039 0.650568 0.364881
O O14 0.087275 0.823516 0.489967
O O15 0.190832 0.090086 0.511942
#
# Coordination Sequence:
#
# PCOD9002231 Si02
#       7
#     2   2   2   2   2   2   2
#     4  12  21  38  68  93 117 165 207 249 306 363
#     4  11  22  35  63  93 119 156 207 254 305 356
#     4  10  25  42  60  88 129 163 201 254 310 361
#     4  10  21  37  63  91 127 154 205 252 306 356
#     4  10  21  36  59 101 123 150 201 265 302 349
#     4  11  22  38  66  91 116 164 206 250 304 361
#     4  10  24  43  58  89 132 160 196 259 301 363
#
# _framework density 23.976745000000001
#
# number of rings (size 3 to 8) (size 9 to 14) (size 15 to 20)
#    0.000    1.429    4.286    1.714    4.000    1.143 
#    0.000    3.571    0.000    0.000    0.000    0.000 
#    0.000    0.000    0.000    0.000    0.000    0.000 
#
# Total GULP energy -77976.196421 kJ/mol
# GULP energy per Si atom -5569.728316 kJ/mol
# Density = 2.392217 g / cm^3
# Si number density = 23.976745 Si / 1000 Ang^3
#
#
#
# Elastic Constant Matrix: (Units=GPa)
#
#
# Indices 1 2 3 4 5 6 
#
# 1 35.1916 3.0255 15.5666 17.6105 6.5741 12.1283
# 2 3.0255 38.6932 16.0112 6.6544 1.8813 20.5811
# 3 15.5666 16.0112 178.1408 12.9200 -6.8276 7.0217
# 4 17.6105 6.6544 12.9200 11.5676 -17.3438 -12.9879
# 5 6.5741 1.8813 -6.8276 -17.3438 36.1924 -3.6986
# 6 12.1283 20.5811 7.0217 -12.9879 -3.6986 25.3422
#
#
#
# Elastic Compliance Matrix: (Units=1/GPa)
#
#
# Indices 1 2 3 4 5 6 
#
# 1 0.013349 -0.012446 -0.001750 0.019710 0.008932 0.015609
# 2 -0.012446 0.024737 -0.002134 0.020032 0.009986 -0.001818
# 3 -0.001750 -0.002134 0.006117 -0.001834 0.000708 0.000039
# 4 0.019710 0.020032 -0.001834 -0.012575 -0.014442 -0.033745
# 5 0.008932 0.009986 0.000708 -0.014442 0.016912 -0.017514
# 6 0.015609 -0.001818 0.000039 -0.033745 -0.017514 0.013605
#
#
# Mechanical properties :
#
#
# Convention : Reuss Voigt Hill
#
# Bulk Modulus (GPa) = 86.63689 35.69248 61.16469
# Shear Modulus (GPa) = 50.68295 29.11525 39.89910
#
# Velocity S-wave (km/s) = 4.60264 3.48848 4.08373
# Velocity P-wave (km/s) = 8.02856 5.58073 6.91384
#
# Compressibility (1/GPa) = 0.01154243
#
# Stress axis : x y z
#
# Youngs Moduli (GPa) = 74.91172 40.42501 163.48128
#
# Poissons Ratio (x) = 0.50312 0.28613
# Poissons Ratio (y) = 0.93234 0.34891
# Poissons Ratio (z) = 0.13111 0.08628
#
# Static dielectric constant tensor:
#      x y z
#    x 2.019500 -0.055020 0.053230 
#    y -0.055020 2.009170 -0.026310 
#    z 0.053230 -0.026310 1.928650 
# 
# From -- ./inp_files/314642.got.cif
#   From: 2010.05.17/outbox.cif.g08.bks.cpg/sg2_158_cif.got.tgz:314642.got - 2010.06.03 11:33:40.
