data_PCOD9002652
_publ_section_title
;
Structure prediction by ZEFSAII (Michael W. Deem and Ramdas Pophale) SiO2 
 PCOD9002652
Probable space group: P -1
;
_chemical_formula_sum "Si O2"
_cell_formula_units_Z 16
_cell_length_a 18.193563
_cell_length_b 22.967449
_cell_length_c 8.811997
_cell_angle_alpha 139.792773
_cell_angle_beta 33.236797
_cell_angle_gamma 158.530406
_cell_volume 736.702378
_symmetry_space_group_name_H-M "P -1"
_symmetry_group_IT_number 2
_symmetry_cell_setting 'triclinic'
loop_
_space_group_symop_operation_xyz
x,y,z
-x,-y,-z
loop_
_atom_site_type_symbol
_atom_site_label
_atom_site_fract_x
_atom_site_fract_y
_atom_site_fract_z
Si Si1 0.912395 0.119294 0.757614
Si Si2 0.561430 0.646704 0.597975
Si Si3 0.896756 0.597442 0.940327
Si Si4 0.249689 0.996544 0.858344
Si Si5 0.565129 0.443159 0.695479
Si Si6 0.947380 0.300562 0.476740
Si Si7 0.668424 0.302785 0.865048
Si Si8 0.877273 0.930329 0.237772
O O1 0.173497 0.230428 0.579172
O O2 0.948919 0.246274 0.917519
O O3 0.845067 0.011829 0.528640
O O4 0.763544 0.033313 0.998824
O O5 0.378993 0.525153 0.806601
O O6 0.463313 0.553684 0.426770
O O7 0.523271 0.732809 0.810014
O O8 0.879519 0.486671 0.813826
O O9 0.965464 0.641639 0.734458
O O10 0.171353 0.864049 0.639042
O O11 0.523529 0.177594 0.726309
O O12 0.062299 0.971659 0.097557
O O13 0.371500 0.260766 0.713414
O O14 0.830114 0.566162 0.532345
O O15 0.500000 0.500000 0.000000
O O16 0.763957 0.280499 0.767811
O O17 0.000000 0.000000 0.000000
#
# Coordination Sequence:
#
# PCOD9002652 Si02
#       8
#     2   2   2   2   2   2   2   2
#     4  11  20  40  62  88 123 153 206 245 301 357
#     4  10  21  36  63  86 119 160 199 241 299 354
#     4   9  22  37  64  86 117 160 203 249 291 353
#     4  11  21  41  63  89 119 163 198 251 297 362
#     4  12  24  40  61  89 127 155 199 252 309 357
#     4  11  23  40  61  90 125 160 201 250 297 356
#     4  10  22  38  65  87 119 162 212 240 292 360
#     4  12  25  36  60  94 122 151 193 257 309 346
#
# _framework density 21.718405000000001
#
# number of rings (size 3 to 8) (size 9 to 14) (size 15 to 20)
#    0.750    0.500    3.750    3.000    5.250    0.500 
#    0.000    0.000    0.000    0.750    0.000    0.000 
#    0.000    0.000    0.000    0.000    0.000    0.000 
#
# Total GULP energy -89270.759770 kJ/mol
# GULP energy per Si atom -5579.422486 kJ/mol
# Density = 2.166897 g / cm^3
# Si number density = 21.718405 Si / 1000 Ang^3
#
#
#
# Elastic Constant Matrix: (Units=GPa)
#
#
# Indices 1 2 3 4 5 6 
#
# 1 26.7788 30.7384 16.1416 11.6080 -8.4844 5.9807
# 2 30.7384 122.2335 31.8310 36.7527 -14.6969 4.1968
# 3 16.1416 31.8310 53.8477 20.5306 -5.9175 1.6770
# 4 11.6080 36.7527 20.5306 35.9453 -2.0172 -1.5874
# 5 -8.4844 -14.6969 -5.9175 -2.0172 34.1927 -3.2228
# 6 5.9807 4.1968 1.6770 -1.5874 -3.2228 34.4329
#
#
#
# Elastic Compliance Matrix: (Units=1/GPa)
#
#
# Indices 1 2 3 4 5 6 
#
# 1 0.061169 -0.010641 -0.009667 -0.003270 0.007960 -0.008263
# 2 -0.010641 0.014757 -0.001062 -0.010890 0.002864 -0.000133
# 3 -0.009667 -0.001062 0.026311 -0.010753 0.001076 0.000132
# 4 -0.003270 -0.010890 -0.010753 0.046098 -0.004243 0.004147
# 5 0.007960 0.002864 0.001076 -0.004243 0.032488 0.001061
# 6 -0.008263 -0.000133 0.000132 0.004147 0.001061 0.030777
#
#
# Mechanical properties :
#
#
# Convention : Reuss Voigt Hill
#
# Bulk Modulus (GPa) = 16.80788 40.03133 28.41961
# Shear Modulus (GPa) = 18.23658 29.19079 23.71368
#
# Velocity S-wave (km/s) = 2.90087 3.67012 3.30793
# Velocity P-wave (km/s) = 4.35613 6.03587 5.26344
#
# Compressibility (1/GPa) = 0.05949591
#
# Stress axis : x y z
#
# Youngs Moduli (GPa) = 16.34805 67.76432 38.00692
#
# Poissons Ratio (x) = 0.72108 0.36743
# Poissons Ratio (y) = 0.17396 0.04038
# Poissons Ratio (z) = 0.15804 0.07200
#
# Static dielectric constant tensor:
#      x y z
#    x 1.796590 -0.048990 -0.016350 
#    y -0.048990 1.879040 0.045830 
#    z -0.016350 0.045830 1.868580 
# 
# From -- ./inp_files/338615.got.cif
#   From: 2010.05.17/outbox.cif.g08.bks.cpg/sg2_170_cif.got.tgz:338615.got - 2010.06.03 11:33:40.
