data_PCOD9002307
_publ_section_title
;
Structure prediction by ZEFSAII (Michael W. Deem and Ramdas Pophale) SiO2 
 PCOD9002307
Probable space group: P -1
;
_chemical_formula_sum "Si O2"
_cell_formula_units_Z 14
_cell_length_a 19.628846
_cell_length_b 13.360230
_cell_length_c 10.001254
_cell_angle_alpha 31.642962
_cell_angle_beta 147.106114
_cell_angle_gamma 147.122604
_cell_volume 671.530420
_symmetry_space_group_name_H-M "P -1"
_symmetry_group_IT_number 2
_symmetry_cell_setting 'triclinic'
loop_
_space_group_symop_operation_xyz
x,y,z
-x,-y,-z
loop_
_atom_site_type_symbol
_atom_site_label
_atom_site_fract_x
_atom_site_fract_y
_atom_site_fract_z
Si Si1 0.664421 0.602092 0.687976
Si Si2 0.850215 0.484787 0.938376
Si Si3 0.616742 0.969135 0.808931
Si Si4 0.661269 0.398333 0.487220
Si Si5 0.584312 0.503872 0.956469
Si Si6 0.099460 0.931684 0.880348
Si Si7 0.129314 0.947597 0.593081
O O1 0.500000 0.500000 0.500000
O O2 0.738132 0.477890 0.871483
O O3 0.744952 0.846809 0.496341
O O4 0.677481 0.585069 0.887723
O O5 0.787491 0.532272 0.642667
O O6 0.996222 0.681818 0.991708
O O7 0.869557 0.271933 0.195843
O O8 0.665083 0.171282 0.754789
O O9 0.500000 0.000000 0.500000
O O10 0.538129 0.734107 0.003254
O O11 0.745309 0.000358 0.889855
O O12 0.664262 0.487224 0.241095
O O13 0.510051 0.371558 0.317093
O O14 0.132734 0.986015 0.715583
O O15 0.016093 0.042212 0.691034
#
# Coordination Sequence:
#
# PCOD9002307 Si02
#       7
#     2   2   2   2   2   2   2
#     4  11  22  36  57  88 130 160 194 252 305 352
#     4  11  22  36  61  94 115 158 207 249 297 353
#     4  10  21  37  61  91 118 153 199 250 304 350
#     4  10  21  36  60  88 115 157 207 240 298 352
#     4  10  22  39  56  87 127 157 194 251 302 357
#     4  10  21  36  59  92 121 150 202 259 293 344
#     4  10  22  35  57  90 123 158 195 248 302 350
#
# _framework density 20.847902000000001
#
# number of rings (size 3 to 8) (size 9 to 14) (size 15 to 20)
#    0.000    1.714    2.857    1.286    4.000    1.714 
#    0.000    0.000    0.000   14.571    0.000    0.000 
#    0.000    0.000    0.000    0.000    0.000    0.000 
#
# Total GULP energy -78119.064920 kJ/mol
# GULP energy per Si atom -5579.933209 kJ/mol
# Density = 2.080045 g / cm^3
# Si number density = 20.847902 Si / 1000 Ang^3
#
#
#
# Elastic Constant Matrix: (Units=GPa)
#
#
# Indices 1 2 3 4 5 6 
#
# 1 126.5408 48.3933 55.3004 -14.3120 5.0256 16.6154
# 2 48.3933 90.0617 56.8117 -10.2175 18.3685 22.1785
# 3 55.3004 56.8117 114.0544 -8.1288 31.6414 7.3614
# 4 -14.3120 -10.2175 -8.1288 36.5790 -11.4949 8.1404
# 5 5.0256 18.3685 31.6414 -11.4949 24.3484 2.9033
# 6 16.6154 22.1785 7.3614 8.1404 2.9033 33.3574
#
#
#
# Elastic Compliance Matrix: (Units=1/GPa)
#
#
# Indices 1 2 3 4 5 6 
#
# 1 0.014044 -0.002321 -0.008867 0.009388 0.015660 -0.007149
# 2 -0.002321 0.021371 -0.008019 0.005772 -0.000995 -0.012605
# 3 -0.008867 -0.008019 0.023896 -0.012085 -0.030076 0.010042
# 4 0.009388 0.005772 -0.012085 0.044607 0.032808 -0.019588
# 5 0.015660 -0.000995 -0.030076 0.032808 0.095164 -0.016791
# 6 -0.007149 -0.012605 0.010042 -0.019588 -0.016791 0.045946
#
#
# Mechanical properties :
#
#
# Convention : Reuss Voigt Hill
#
# Bulk Modulus (GPa) = 47.85480 72.40753 60.13116
# Shear Modulus (GPa) = 17.21721 30.20039 23.70880
#
# Velocity S-wave (km/s) = 2.87688 3.81018 3.37594
# Velocity P-wave (km/s) = 5.83432 7.35958 6.64088
#
# Compressibility (1/GPa) = 0.02089655
#
# Stress axis : x y z
#
# Youngs Moduli (GPa) = 71.20496 46.79277 41.84846
#
# Poissons Ratio (x) = 0.10861 0.37108
# Poissons Ratio (y) = 0.16528 0.33557
# Poissons Ratio (z) = 0.63138 0.37522
#
# Static dielectric constant tensor:
#      x y z
#    x 1.757640 -0.061860 0.012010 
#    y -0.061860 1.880040 0.063200 
#    z 0.012010 0.063200 1.863500 
# 
# From -- ./inp_files/471690.got.cif
#   From: 2010.05.17/outbox.cif.g08.bks.cpg/sg2_236_cif.got.tgz:471690.got - 2010.06.03 11:33:40.
