data_PCOD9002168
_publ_section_title
;
Structure prediction by ZEFSAII (Michael W. Deem and Ramdas Pophale) SiO2 
 PCOD9002168
Probable space group: P -1
;
_chemical_formula_sum "Si O2"
_cell_formula_units_Z 16
_cell_length_a 7.981578
_cell_length_b 15.151812
_cell_length_c 14.635703
_cell_angle_alpha 28.042141
_cell_angle_beta 59.919340
_cell_angle_gamma 56.375077
_cell_volume 692.522959
_symmetry_space_group_name_H-M "P -1"
_symmetry_group_IT_number 2
_symmetry_cell_setting 'triclinic'
loop_
_space_group_symop_operation_xyz
x,y,z
-x,-y,-z
loop_
_atom_site_type_symbol
_atom_site_label
_atom_site_fract_x
_atom_site_fract_y
_atom_site_fract_z
Si Si1 0.375546 0.043320 0.721146
Si Si2 0.739933 0.327464 0.914257
Si Si3 0.256125 0.424652 0.722906
Si Si4 0.576629 0.355943 0.385133
Si Si5 0.103789 0.302410 0.706176
Si Si6 0.965669 0.796659 0.894563
Si Si7 0.096660 0.190447 0.497747
Si Si8 0.997959 0.775363 0.699472
O O1 0.555355 0.138851 0.604488
O O2 0.204956 0.140938 0.752711
O O3 0.284235 0.110219 0.585173
O O4 0.403878 0.814537 0.925856
O O5 0.832951 0.314101 0.002199
O O6 0.612502 0.534340 0.724135
O O7 0.933654 0.256427 0.859437
O O8 0.417742 0.515931 0.643249
O O9 0.272781 0.340364 0.693903
O O10 0.054417 0.609320 0.607686
O O11 0.212050 0.256905 0.952434
O O12 0.782369 0.342180 0.288638
O O13 0.000000 0.500000 0.500000
O O14 0.961516 0.720930 0.861869
O O15 0.978679 0.020515 0.687403
O O16 0.145314 0.227720 0.345017
O O17 0.000000 0.000000 0.500000
#
# Coordination Sequence:
#
# PCOD9002168 Si02
#       8
#     2   2   2   2   2   2   2   2
#     4  11  21  39  60  85 122 152 187 242 283 340
#     4  10  22  38  59  89 116 152 194 232 290 341
#     4  10  21  36  58  87 113 149 196 234 287 337
#     4  11  23  37  56  87 124 148 187 241 289 337
#     4  11  19  39  66  83 111 156 196 233 281 347
#     4   9  19  38  59  81 114 151 196 238 277 341
#     4   9  18  35  59  82 110 150 191 234 280 337
#     4   9  20  39  61  85 112 154 198 233 287 341
#
# _framework density 23.103928
#
# number of rings (size 3 to 8) (size 9 to 14) (size 15 to 20)
#    0.000    2.000    2.500    1.125    0.000    6.000 
#    0.000    8.750    0.000    0.000    0.000    0.000 
#    0.000    0.000    0.000    0.000    0.000    0.000 
#
# Total GULP energy -89369.792406 kJ/mol
# GULP energy per Si atom -5585.612025 kJ/mol
# Density = 2.305134 g / cm^3
# Si number density = 23.103928 Si / 1000 Ang^3
#
#
#
# Elastic Constant Matrix: (Units=GPa)
#
#
# Indices 1 2 3 4 5 6 
#
# 1 82.1049 24.1006 34.3826 14.5737 -1.0399 29.1342
# 2 24.1006 55.8618 10.5784 14.9434 3.1044 24.5006
# 3 34.3826 10.5784 101.7228 5.7048 -28.1566 17.3111
# 4 14.5737 14.9434 5.7048 36.9515 12.6351 6.5991
# 5 -1.0399 3.1044 -28.1566 12.6351 35.3623 -3.2878
# 6 29.1342 24.5006 17.3111 6.5991 -3.2878 36.8290
#
#
#
# Elastic Compliance Matrix: (Units=1/GPa)
#
#
# Indices 1 2 3 4 5 6 
#
# 1 0.019430 -0.001155 -0.005213 -0.003071 -0.003489 -0.011912
# 2 -0.001155 0.027555 0.000486 -0.007531 -0.000898 -0.016376
# 3 -0.005213 0.000486 0.016062 -0.005245 0.014325 -0.001530
# 4 -0.003071 -0.007531 -0.005245 0.037608 -0.016889 0.001658
# 5 -0.003489 -0.000898 0.014325 -0.016889 0.046045 0.003760
# 6 -0.011912 -0.016376 -0.001530 0.001658 0.003760 0.048228
#
#
# Mechanical properties :
#
#
# Convention : Reuss Voigt Hill
#
# Bulk Modulus (GPa) = 19.50073 41.97918 30.73996
# Shear Modulus (GPa) = 22.34280 33.20376 27.77328
#
# Velocity S-wave (km/s) = 3.11313 3.79509 3.47090
# Velocity P-wave (km/s) = 4.62394 6.11659 5.42188
#
# Compressibility (1/GPa) = 0.05128013
#
# Stress axis : x y z
#
# Youngs Moduli (GPa) = 51.46764 36.29154 62.25925
#
# Poissons Ratio (x) = 0.04193 0.32458
# Poissons Ratio (y) = 0.05947 -0.03024
# Poissons Ratio (z) = 0.26832 -0.01763
#
# Static dielectric constant tensor:
#      x y z
#    x 1.911680 0.032990 -0.028600 
#    y 0.032990 1.846930 0.009330 
#    z -0.028600 0.009330 1.878650 
# 
# From -- ./inp_files/344950.got.cif
#   From: 2010.05.17/outbox.cif.g08.bks.cpg/sg2_173_cif.got.tgz:344950.got - 2010.06.03 11:33:40.
