data_PCOD9002469
_publ_section_title
;
Structure prediction by ZEFSAII (Michael W. Deem and Ramdas Pophale) SiO2 
 PCOD9002469
Probable space group: P -1
;
_chemical_formula_sum "Si O2"
_cell_formula_units_Z 16
_cell_length_a 13.676666
_cell_length_b 19.082835
_cell_length_c 5.107661
_cell_angle_alpha 49.840464
_cell_angle_beta 42.861840
_cell_angle_gamma 44.451882
_cell_volume 613.964036
_symmetry_space_group_name_H-M "P -1"
_symmetry_group_IT_number 2
_symmetry_cell_setting 'triclinic'
loop_
_space_group_symop_operation_xyz
x,y,z
-x,-y,-z
loop_
_atom_site_type_symbol
_atom_site_label
_atom_site_fract_x
_atom_site_fract_y
_atom_site_fract_z
Si Si1 0.985590 0.350534 0.388683
Si Si2 0.096188 0.008314 0.539424
Si Si3 0.265598 0.148274 0.449798
Si Si4 0.100015 0.768794 0.538399
Si Si5 0.292435 0.787022 0.610938
Si Si6 0.450264 0.938539 0.465148
Si Si7 0.146423 0.460834 0.514333
Si Si8 0.424754 0.261313 0.523945
O O1 0.088161 0.244393 0.601619
O O2 0.937474 0.322285 0.271291
O O3 0.845251 0.440407 0.615748
O O4 0.102006 0.402311 0.974990
O O5 0.068031 0.125204 0.339635
O O6 0.264954 0.906116 0.403070
O O7 0.000000 0.000000 0.500000
O O8 0.000000 0.000000 0.000000
O O9 0.403564 0.107300 0.500496
O O10 0.276075 0.036988 0.632265
O O11 0.330295 0.200702 0.973956
O O12 0.218134 0.760154 0.566642
O O13 0.187204 0.779423 0.077382
O O14 0.479723 0.716182 0.485989
O O15 0.441452 0.833300 0.678855
O O16 0.500000 0.000000 0.000000
O O17 0.313903 0.363856 0.331931
O O18 0.000000 0.500000 0.500000
#
# Coordination Sequence:
#
# PCOD9002469 Si02
#       8
#     2   2   2   2   2   2   2   2
#     4  10  22  39  64  89 117 161 213 266 319 371
#     4   8  16  34  54  81 119 162 204 239 291 361
#     4   9  19  36  57  89 121 154 206 259 319 378
#     4  10  22  40  61  92 126 167 212 257 309 381
#     4  10  22  39  60  92 129 168 210 251 315 382
#     4   9  18  34  53  90 120 155 196 251 324 375
#     4  10  22  42  65  89 116 158 216 268 327 373
#     4  10  21  36  61  86 122 164 205 259 322 374
#
# _framework density 26.060155999999999
#
# number of rings (size 3 to 8) (size 9 to 14) (size 15 to 20)
#    0.000    2.500    0.000    0.750    5.250    0.000 
#    0.000    5.000    0.000    0.000    0.000    0.000 
#    0.000    0.000    0.000    0.000    0.000    0.000 
#
# Total GULP energy -89251.432450 kJ/mol
# GULP energy per Si atom -5578.214528 kJ/mol
# Density = 2.600084 g / cm^3
# Si number density = 26.060156 Si / 1000 Ang^3
#
#
#
# Elastic Constant Matrix: (Units=GPa)
#
#
# Indices 1 2 3 4 5 6 
#
# 1 171.7776 96.3155 8.2020 -4.6679 18.7964 -4.6890
# 2 96.3155 228.5959 14.7768 -29.0275 12.1894 2.3125
# 3 8.2020 14.7768 78.3515 -10.8491 10.8881 2.8573
# 4 -4.6679 -29.0275 -10.8491 21.7431 0.5033 9.2440
# 5 18.7964 12.1894 10.8881 0.5033 43.1614 -3.3220
# 6 -4.6890 2.3125 2.8573 9.2440 -3.3220 48.2601
#
#
#
# Elastic Compliance Matrix: (Units=1/GPa)
#
#
# Indices 1 2 3 4 5 6 
#
# 1 0.008176 -0.003862 -0.000484 -0.004308 -0.002168 0.001684
# 2 -0.003862 0.007384 0.000717 0.010628 -0.000929 -0.002871
# 3 -0.000484 0.000717 0.014677 0.009572 -0.004042 -0.003062
# 4 -0.004308 0.010628 0.009572 0.070717 -0.005552 -0.015422
# 5 -0.002168 -0.000929 -0.004042 -0.005552 0.025683 0.002904
# 6 0.001684 -0.002871 -0.003062 -0.015422 0.002904 0.024358
#
#
# Mechanical properties :
#
#
# Convention : Reuss Voigt Hill
#
# Bulk Modulus (GPa) = 43.51818 79.70150 61.60984
# Shear Modulus (GPa) = 30.13631 46.59497 38.36564
#
# Velocity S-wave (km/s) = 3.40430 4.23304 3.84108
# Velocity P-wave (km/s) = 5.67342 7.38522 6.58518
#
# Compressibility (1/GPa) = 0.02297890
#
# Stress axis : x y z
#
# Youngs Moduli (GPa) = 122.30615 135.43538 68.13299
#
# Poissons Ratio (x) = 0.52307 0.03299
# Poissons Ratio (y) = 0.47236 -0.04887
# Poissons Ratio (z) = 0.05922 -0.09714
#
# Static dielectric constant tensor:
#      x y z
#    x 2.158520 0.064640 0.096630 
#    y 0.064640 2.334590 0.120220 
#    z 0.096630 0.120220 2.206310 
# 
# From -- ./inp_files/80172.got.cif
#   From: 2010.05.17/outbox.cif.g08.bks.cpg/sg2_41_cif.got.tgz:80172.got - 2010.06.03 11:33:40.
