data_PCOD9002561
_publ_section_title
;
Structure prediction by ZEFSAII (Michael W. Deem and Ramdas Pophale) SiO2 
 PCOD9002561
Probable space group: P -1
;
_chemical_formula_sum "Si O2"
_cell_formula_units_Z 14
_cell_length_a 18.367703
_cell_length_b 24.025959
_cell_length_c 5.145688
_cell_angle_alpha 64.803681
_cell_angle_beta 123.826303
_cell_angle_gamma 162.851155
_cell_volume 501.214225
_symmetry_space_group_name_H-M "P -1"
_symmetry_group_IT_number 2
_symmetry_cell_setting 'triclinic'
loop_
_space_group_symop_operation_xyz
x,y,z
-x,-y,-z
loop_
_atom_site_type_symbol
_atom_site_label
_atom_site_fract_x
_atom_site_fract_y
_atom_site_fract_z
Si Si1 0.997957 0.654736 0.200412
Si Si2 0.615664 0.762229 0.933222
Si Si3 0.077846 0.512404 0.881497
Si Si4 0.766143 0.093039 0.506312
Si Si5 0.653736 0.509472 0.429262
Si Si6 0.137370 0.187769 0.345042
Si Si7 0.321122 0.038679 0.895062
O O1 0.712153 0.437668 0.222681
O O2 0.875077 0.631051 0.846118
O O3 0.075082 0.655677 0.137979
O O4 0.236096 0.840087 0.510359
O O5 0.737801 0.786816 0.298006
O O6 0.547837 0.684255 0.679850
O O7 0.859646 0.978659 0.029050
O O8 0.000000 0.500000 0.500000
O O9 0.000000 0.500000 0.000000
O O10 0.436504 0.747391 0.121333
O O11 0.628833 0.979418 0.188464
O O12 0.122788 0.323097 0.691987
O O13 0.646802 0.968751 0.741410
O O14 0.411695 0.392197 0.303649
O O15 0.999805 0.144121 0.359676
#
# Coordination Sequence:
#
# PCOD9002561 Si02
#       7
#     2   2   2   2   2   2   2
#     4  10  22  47  73  99 143 187 230 288 345 426
#     4   9  19  37  63 103 140 190 236 278 342 409
#     4  12  29  51  79 109 131 174 240 305 363 408
#     4  11  25  45  71 103 149 193 226 268 364 416
#     4  10  21  39  68 102 143 198 229 267 334 430
#     4  10  21  36  62 105 146 187 238 279 339 402
#     4  12  26  47  71 105 147 181 231 302 341 410
#
# _framework density 27.932165999999999
#
# number of rings (size 3 to 8) (size 9 to 14) (size 15 to 20)
#    0.000    1.429    2.857    1.286    6.000    2.286 
#    0.000    4.286    0.000    0.000    0.000    0.000 
#    0.000    0.000    0.000    0.000    0.000    0.000 
#
# Total GULP energy -78415.253231 kJ/mol
# GULP energy per Si atom -5601.089517 kJ/mol
# Density = 2.786859 g / cm^3
# Si number density = 27.932166 Si / 1000 Ang^3
#
#
#
# Elastic Constant Matrix: (Units=GPa)
#
#
# Indices 1 2 3 4 5 6 
#
# 1 185.0315 39.2982 30.1669 -5.8891 -23.3386 20.1519
# 2 39.2982 129.9969 10.7045 13.4868 -8.9621 13.2491
# 3 30.1669 10.7045 67.7445 -8.6785 -16.2753 8.1414
# 4 -5.8891 13.4868 -8.6785 35.1638 4.5196 -13.3866
# 5 -23.3386 -8.9621 -16.2753 4.5196 49.3014 -5.1975
# 6 20.1519 13.2491 8.1414 -13.3866 -5.1975 34.1520
#
#
#
# Elastic Compliance Matrix: (Units=1/GPa)
#
#
# Indices 1 2 3 4 5 6 
#
# 1 0.006542 -0.001415 -0.001922 -0.000069 0.001939 -0.002585
# 2 -0.001415 0.009354 -0.000844 -0.005966 0.000792 -0.004810
# 3 -0.001922 -0.000844 0.017297 0.003475 0.004260 -0.000652
# 4 -0.000069 -0.005966 0.003475 0.037938 -0.001747 0.016132
# 5 0.001939 0.000792 0.004260 -0.001747 0.022948 0.000341
# 6 -0.002585 -0.004810 -0.000652 0.016132 0.000341 0.039203
#
#
# Mechanical properties :
#
#
# Convention : Reuss Voigt Hill
#
# Bulk Modulus (GPa) = 40.27155 60.34580 50.30867
# Shear Modulus (GPa) = 33.35088 43.89700 38.62394
#
# Velocity S-wave (km/s) = 3.45917 3.96859 3.72260
# Velocity P-wave (km/s) = 5.51393 6.53077 6.04377
#
# Compressibility (1/GPa) = 0.02483143
#
# Stress axis : x y z
#
# Youngs Moduli (GPa) = 152.85025 106.91144 57.81205
#
# Poissons Ratio (x) = 0.15129 0.11112
# Poissons Ratio (y) = 0.21630 0.04878
# Poissons Ratio (z) = 0.29379 0.09021
#
# Static dielectric constant tensor:
#      x y z
#    x 2.200860 0.017190 -0.019380 
#    y 0.017190 2.031880 0.054580 
#    z -0.019380 0.054580 2.157790 
# 
# From -- ./inp_files/112669.got.cif
#   From: 2010.05.17/outbox.cif.g08.bks.cpg/sg2_57_cif.got.tgz:112669.got - 2010.06.03 11:33:40.
