data_PCOD9002190
_publ_section_title
;
Structure prediction by ZEFSAII (Michael W. Deem and Ramdas Pophale) SiO2 
 PCOD9002190
Probable space group: P -1
;
_chemical_formula_sum "Si O2"
_cell_formula_units_Z 14
_cell_length_a 9.070295
_cell_length_b 8.373315
_cell_length_c 17.618310
_cell_angle_alpha 61.286012
_cell_angle_beta 60.278173
_cell_angle_gamma 112.595229
_cell_volume 587.401796
_symmetry_space_group_name_H-M "P -1"
_symmetry_group_IT_number 2
_symmetry_cell_setting 'triclinic'
loop_
_space_group_symop_operation_xyz
x,y,z
-x,-y,-z
loop_
_atom_site_type_symbol
_atom_site_label
_atom_site_fract_x
_atom_site_fract_y
_atom_site_fract_z
Si Si1 0.531331 0.507581 0.817062
Si Si2 0.721460 0.062730 0.384743
Si Si3 0.650584 0.220410 0.596421
Si Si4 0.379021 0.156118 0.087964
Si Si5 0.819130 0.423817 0.730811
Si Si6 0.716077 0.374268 0.094309
Si Si7 0.095676 0.165960 0.593430
O O1 0.601558 0.398866 0.769753
O O2 0.305322 0.477750 0.873686
O O3 0.430800 0.316170 0.963113
O O4 0.842961 0.886519 0.661878
O O5 0.029628 0.384196 0.271555
O O6 0.500000 0.000000 0.500000
O O7 0.636732 0.020782 0.329115
O O8 0.687294 0.816488 0.462876
O O9 0.742302 0.501570 0.534153
O O10 0.917926 0.374568 0.442699
O O11 0.561153 0.003915 0.734282
O O12 0.650499 0.399284 0.022491
O O13 0.326402 0.897726 0.144798
O O14 0.092864 0.978563 0.247475
O O15 0.000000 0.500000 0.000000
#
# Coordination Sequence:
#
# PCOD9002190 Si02
#       7
#     2   2   2   2   2   2   2
#     4  10  21  39  63  87 116 159 199 239 290 349
#     4   9  18  34  55  91 119 148 189 242 297 337
#     4  10  21  36  58  90 121 148 195 248 295 344
#     4  10  21  39  63  88 114 159 203 236 285 357
#     4   9  20  38  65  86 111 158 204 242 283 347
#     4  11  25  39  57  88 123 156 189 248 302 343
#     4   9  18  33  60  84 111 156 198 238 278 347
#
# _framework density 23.833770999999999
#
# number of rings (size 3 to 8) (size 9 to 14) (size 15 to 20)
#    0.000    2.286    0.000    2.571    6.000    5.714 
#    0.000    3.571    0.000    0.000    0.000    0.000 
#    0.000    0.000    0.000    0.000    0.000    0.000 
#
# Total GULP energy -78202.958070 kJ/mol
# GULP energy per Si atom -5585.925576 kJ/mol
# Density = 2.377952 g / cm^3
# Si number density = 23.833771 Si / 1000 Ang^3
#
#
#
# Elastic Constant Matrix: (Units=GPa)
#
#
# Indices 1 2 3 4 5 6 
#
# 1 98.2888 47.7688 30.7446 10.0068 -10.5938 -43.7004
# 2 47.7688 129.5141 38.4129 -10.4523 5.0482 -52.4226
# 3 30.7446 38.4129 85.9907 1.3111 7.3976 -21.7029
# 4 10.0068 -10.4523 1.3111 30.5417 -8.9998 -0.4754
# 5 -10.5938 5.0482 7.3976 -8.9998 32.3044 7.4341
# 6 -43.7004 -52.4226 -21.7029 -0.4754 7.4341 66.2484
#
#
#
# Elastic Compliance Matrix: (Units=1/GPa)
#
#
# Indices 1 2 3 4 5 6 
#
# 1 0.016663 -0.002823 -0.003070 -0.005152 0.003488 0.007324
# 2 -0.002823 0.013406 -0.002729 0.004897 -0.002922 0.008215
# 3 -0.003070 -0.002729 0.014671 -0.001938 -0.004742 0.001140
# 4 -0.005152 0.004897 -0.001938 0.038831 0.009012 -0.000891
# 5 0.003488 -0.002922 -0.004742 0.009012 0.037465 -0.005704
# 6 0.007324 0.008215 0.001140 -0.000891 -0.005704 0.027434
#
#
# Mechanical properties :
#
#
# Convention : Reuss Voigt Hill
#
# Bulk Modulus (GPa) = 36.36770 60.84956 48.60863
# Shear Modulus (GPa) = 28.59127 38.94340 33.76733
#
# Velocity S-wave (km/s) = 3.46730 4.04661 3.76810
# Velocity P-wave (km/s) = 5.59657 6.88619 6.27460
#
# Compressibility (1/GPa) = 0.02749693
#
# Stress axis : x y z
#
# Youngs Moduli (GPa) = 60.01366 74.59342 68.16148
#
# Poissons Ratio (x) = 0.21054 0.20923
# Poissons Ratio (y) = 0.16939 0.18603
# Poissons Ratio (z) = 0.18422 0.20359
#
# Static dielectric constant tensor:
#      x y z
#    x 1.988410 0.002540 -0.029120 
#    y 0.002540 1.955060 0.038580 
#    z -0.029120 0.038580 1.896380 
# 
# From -- ./inp_files/224083.got.cif
#   From: 2010.05.17/outbox.cif.g08.bks.cpg/sg2_113_cif.got.tgz:224083.got - 2010.06.03 11:33:40.
