data_PCOD9002093
_publ_section_title
;
Structure prediction by ZEFSAII (Michael W. Deem and Ramdas Pophale) SiO2 
 PCOD9002093
Probable space group: P -1
;
_chemical_formula_sum "Si O2"
_cell_formula_units_Z 14
_cell_length_a 8.410502
_cell_length_b 9.136554
_cell_length_c 11.642357
_cell_angle_alpha 112.178186
_cell_angle_beta 130.684998
_cell_angle_gamma 59.987993
_cell_volume 585.641139
_symmetry_space_group_name_H-M "P -1"
_symmetry_group_IT_number 2
_symmetry_cell_setting 'triclinic'
loop_
_space_group_symop_operation_xyz
x,y,z
-x,-y,-z
loop_
_atom_site_type_symbol
_atom_site_label
_atom_site_fract_x
_atom_site_fract_y
_atom_site_fract_z
Si Si1 0.936604 0.343196 0.793151
Si Si2 0.207688 0.446095 0.777582
Si Si3 0.408142 0.127281 0.357573
Si Si4 0.346597 0.762471 0.948652
Si Si5 0.455237 0.242157 0.651323
Si Si6 0.646781 0.681493 0.849533
Si Si7 0.075542 0.953180 0.196234
O O1 0.997197 0.420881 0.729154
O O2 0.713616 0.488217 0.780268
O O3 0.948506 0.150243 0.733781
O O4 0.136049 0.323756 0.974597
O O5 0.237074 0.620343 0.875188
O O6 0.261854 0.403299 0.657850
O O7 0.423183 0.297025 0.890276
O O8 0.463969 0.235721 0.515733
O O9 0.382431 0.206145 0.244196
O O10 0.184165 0.097331 0.289394
O O11 0.581975 0.932749 0.383965
O O12 0.433555 0.745476 0.852415
O O13 0.168395 0.950117 0.942322
O O14 0.713150 0.198181 0.806191
#
# Coordination Sequence:
#
# PCOD9002093 Si02
#       7
#     2   2   2   2   2   2   2
#     4  10  22  36  59  90 114 147 192 232 297 328
#     4  10  21  39  58  83 121 151 184 241 278 347
#     4   9  21  40  61  79 116 153 195 230 281 335
#     4  10  22  36  59  90 114 147 192 232 297 328
#     4   9  21  40  61  79 116 153 195 230 281 335
#     4  10  21  39  58  83 121 151 184 241 278 347
#     4  10  21  36  57  87 113 145 194 235 280 342
#
# _framework density 23.905422999999999
#
# number of rings (size 3 to 8) (size 9 to 14) (size 15 to 20)
#    0.857    1.429    0.000    1.714    4.000    5.714 
#    0.000    8.571    0.000    0.000    0.000    0.000 
#    0.000    0.000    0.000    0.000    0.000    0.000 
#
# Total GULP energy -77981.741615 kJ/mol
# GULP energy per Si atom -5570.124401 kJ/mol
# Density = 2.385101 g / cm^3
# Si number density = 23.905423 Si / 1000 Ang^3
#
#
#
# Elastic Constant Matrix: (Units=GPa)
#
#
# Indices 1 2 3 4 5 6 
#
# 1 81.4433 27.0987 20.3949 -8.2249 -10.9202 8.1632
# 2 27.0987 49.4672 21.5184 -10.3144 -0.7882 2.0921
# 3 20.3949 21.5184 39.9387 2.4371 -11.7333 2.3710
# 4 -8.2249 -10.3144 2.4371 26.0728 0.0652 -5.2997
# 5 -10.9202 -0.7882 -11.7333 0.0652 23.5893 -2.4726
# 6 8.1632 2.0921 2.3710 -5.2997 -2.4726 37.7952
#
#
#
# Elastic Compliance Matrix: (Units=1/GPa)
#
#
# Indices 1 2 3 4 5 6 
#
# 1 0.016629 -0.007193 -0.002921 0.002186 0.005755 -0.002327
# 2 -0.007193 0.035473 -0.019906 0.014068 -0.011871 0.002035
# 3 -0.002921 -0.019906 0.043951 -0.013278 0.019713 -0.001597
# 4 0.002186 0.014068 -0.013278 0.047056 -0.004637 0.005877
# 5 0.005755 -0.011871 0.019713 -0.004637 0.054593 0.001099
# 6 -0.002327 0.002035 -0.001597 0.005877 0.001099 0.027845
#
#
# Mechanical properties :
#
#
# Convention : Reuss Voigt Hill
#
# Bulk Modulus (GPa) = 27.76705 34.31923 31.04314
# Shear Modulus (GPa) = 16.80156 24.28061 20.54108
#
# Velocity S-wave (km/s) = 2.65398 3.19045 2.93450
# Velocity P-wave (km/s) = 4.58607 5.28767 4.94932
#
# Compressibility (1/GPa) = 0.03601391
#
# Stress axis : x y z
#
# Youngs Moduli (GPa) = 60.13637 28.19030 22.75243
#
# Poissons Ratio (x) = 0.20278 0.06645
# Poissons Ratio (y) = 0.43257 0.45291
# Poissons Ratio (z) = 0.17563 0.56116
#
# Static dielectric constant tensor:
#      x y z
#    x 2.018510 0.010720 -0.011370 
#    y 0.010720 1.905150 -0.003270 
#    z -0.011370 -0.003270 1.984460 
# 
# From -- ./inp_files/338525.got.cif
#   From: 2010.05.17/outbox.cif.g08.bks.cpg/sg2_170_cif.got.tgz:338525.got - 2010.06.03 11:33:40.
