data_PCOD9002459
_publ_section_title
;
Structure prediction by ZEFSAII (Michael W. Deem and Ramdas Pophale) SiO2 
 PCOD9002459
Probable space group: P -1
;
_chemical_formula_sum "Si O2"
_cell_formula_units_Z 14
_cell_length_a 11.321167
_cell_length_b 20.671372
_cell_length_c 9.241427
_cell_angle_alpha 128.370052
_cell_angle_beta 37.160901
_cell_angle_gamma 150.817271
_cell_volume 615.971426
_symmetry_space_group_name_H-M "P -1"
_symmetry_group_IT_number 2
_symmetry_cell_setting 'triclinic'
loop_
_space_group_symop_operation_xyz
x,y,z
-x,-y,-z
loop_
_atom_site_type_symbol
_atom_site_label
_atom_site_fract_x
_atom_site_fract_y
_atom_site_fract_z
Si Si1 0.271297 0.673931 0.083899
Si Si2 0.787287 0.020769 0.575642
Si Si3 0.487587 0.188948 0.246675
Si Si4 0.215433 0.297781 0.434052
Si Si5 0.336802 0.136127 0.783805
Si Si6 0.370670 0.636540 0.385611
Si Si7 0.385325 0.517183 0.430330
O O1 0.267893 0.718192 0.995296
O O2 0.524799 0.684865 0.840815
O O3 0.084411 0.470989 0.719721
O O4 0.404631 0.779280 0.223584
O O5 0.139628 0.102036 0.397261
O O6 0.879603 0.139393 0.581488
O O7 0.561952 0.919379 0.790437
O O8 0.638374 0.919454 0.447710
O O9 0.586392 0.283538 0.412414
O O10 0.254687 0.380968 0.390236
O O11 0.333960 0.374980 0.578179
O O12 0.400704 0.247037 0.800158
O O13 0.000000 0.000000 0.000000
O O14 0.471276 0.582694 0.281895
O O15 0.000000 0.500000 0.500000
#
# Coordination Sequence:
#
# PCOD9002459 Si02
#       7
#     2   2   2   2   2   2   2
#     4  11  20  37  62  86 114 156 202 237 291 352
#     4   9  17  34  55  85 115 150 193 241 295 340
#     4   9  18  31  58  84 110 153 196 238 288 349
#     4  10  21  36  61  85 120 151 197 245 289 355
#     4  11  20  33  61  88 115 155 199 243 294 350
#     4  11  21  35  57  88 121 152 195 249 295 344
#     4  11  22  37  57  91 116 157 193 244 297 347
#
# _framework density 22.728328000000001
#
# number of rings (size 3 to 8) (size 9 to 14) (size 15 to 20)
#    0.000    1.714    7.143    0.429    0.000    0.000 
#    0.000    2.143    0.000    0.000    0.000    0.000 
#    0.000    0.000    0.000    0.000    0.000    0.000 
#
# Total GULP energy -78052.747691 kJ/mol
# GULP energy per Si atom -5575.196264 kJ/mol
# Density = 2.267660 g / cm^3
# Si number density = 22.728328 Si / 1000 Ang^3
#
#
#
# Elastic Constant Matrix: (Units=GPa)
#
#
# Indices 1 2 3 4 5 6 
#
# 1 84.9365 57.9214 33.7300 5.8731 15.5576 -18.6783
# 2 57.9214 139.7261 24.5030 -9.2437 16.0747 -34.2479
# 3 33.7300 24.5030 48.8405 -12.7194 19.0415 -9.8482
# 4 5.8731 -9.2437 -12.7194 36.0438 -3.7781 20.6098
# 5 15.5576 16.0747 19.0415 -3.7781 32.5916 -4.0739
# 6 -18.6783 -34.2479 -9.8482 20.6098 -4.0739 64.8145
#
#
#
# Elastic Compliance Matrix: (Units=1/GPa)
#
#
# Indices 1 2 3 4 5 6 
#
# 1 0.025935 -0.007336 -0.017159 -0.015540 0.000205 0.005944
# 2 -0.007336 0.011074 0.001698 0.002682 -0.002266 0.003000
# 3 -0.017159 0.001698 0.041388 0.018953 -0.015223 -0.004742
# 4 -0.015540 0.002682 0.018953 0.046019 -0.001507 -0.014910
# 5 0.000205 -0.002266 -0.015223 -0.001507 0.040367 -0.000435
# 6 0.005944 0.003000 -0.004742 -0.014910 -0.000435 0.022720
#
#
# Mechanical properties :
#
#
# Convention : Reuss Voigt Hill
#
# Bulk Modulus (GPa) = 30.48658 56.20131 43.34394
# Shear Modulus (GPa) = 20.48918 37.17991 28.83454
#
# Velocity S-wave (km/s) = 3.00573 4.04894 3.56569
# Velocity P-wave (km/s) = 5.04861 6.82932 6.00534
#
# Compressibility (1/GPa) = 0.03280132
#
# Stress axis : x y z
#
# Youngs Moduli (GPa) = 38.55834 90.30372 24.16185
#
# Poissons Ratio (x) = 0.66251 0.41458
# Poissons Ratio (y) = 0.28288 -0.04102
# Poissons Ratio (z) = 0.66160 -0.15330
#
# Static dielectric constant tensor:
#      x y z
#    x 1.919890 -0.037890 0.007090 
#    y -0.037890 1.934110 0.014780 
#    z 0.007090 0.014780 1.888360 
# 
# From -- ./inp_files/282151.got.cif
#   From: 2010.05.17/outbox.cif.g08.bks.cpg/sg2_142_cif.got.tgz:282151.got - 2010.06.03 11:33:40.
