data_PCOD9002633
_publ_section_title
;
Structure prediction by ZEFSAII (Michael W. Deem and Ramdas Pophale) SiO2 
 PCOD9002633
Probable space group: P -1
;
_chemical_formula_sum "Si O2"
_cell_formula_units_Z 16
_cell_length_a 15.215618
_cell_length_b 5.644204
_cell_length_c 9.075455
_cell_angle_alpha 88.391058
_cell_angle_beta 107.765384
_cell_angle_gamma 120.076346
_cell_volume 634.886399
_symmetry_space_group_name_H-M "P -1"
_symmetry_group_IT_number 2
_symmetry_cell_setting 'triclinic'
loop_
_space_group_symop_operation_xyz
x,y,z
-x,-y,-z
loop_
_atom_site_type_symbol
_atom_site_label
_atom_site_fract_x
_atom_site_fract_y
_atom_site_fract_z
Si Si1 0.204338 0.371952 0.735846
Si Si2 0.873116 0.015707 0.773259
Si Si3 0.901868 0.460704 0.069401
Si Si4 0.496350 0.963688 0.177952
Si Si5 0.982620 0.174026 0.320980
Si Si6 0.427229 0.432870 0.817837
Si Si7 0.798829 0.310180 0.527620
Si Si8 0.266510 0.568055 0.212154
O O1 0.156290 0.422568 0.856733
O O2 0.305623 0.334930 0.802663
O O3 0.238739 0.640444 0.648373
O O4 0.103898 0.086772 0.624428
O O5 0.805698 0.064679 0.612272
O O6 0.975327 0.285221 0.896754
O O7 0.786936 0.760845 0.832004
O O8 0.941648 0.900538 0.730516
O O9 0.911156 0.236286 0.172712
O O10 0.820344 0.357462 0.893672
O O11 0.560815 0.805841 0.251071
O O12 0.377149 0.753620 0.181811
O O13 0.531746 0.272062 0.246761
O O14 0.500000 0.000000 0.000000
O O15 0.071670 0.467816 0.426141
O O16 0.500000 0.500000 0.000000
O O17 0.734298 0.381140 0.614431
#
# Coordination Sequence:
#
# PCOD9002633 Si02
#       8
#     2   2   2   2   2   2   2   2
#     4  11  23  39  66  92 127 174 213 270 329 385
#     4   9  21  39  58  92 133 170 212 261 324 400
#     4  10  21  36  62  96 127 165 221 264 319 395
#     4  10  23  43  67  97 127 164 220 285 334 390
#     4   9  21  37  63  95 128 169 214 264 320 393
#     4  10  23  42  67  97 129 161 222 285 333 386
#     4  10  23  41  59  93 134 169 213 258 327 407
#     4  11  23  39  66  89 128 173 209 271 338 387
#
# _framework density 25.201357000000002
#
# number of rings (size 3 to 8) (size 9 to 14) (size 15 to 20)
#    0.000    2.000    0.000    2.250    7.000   13.000 
#    0.000    1.250    0.000    0.000    0.000    0.000 
#    0.000    0.000    0.000    0.000    0.000    0.000 
#
# Total GULP energy -89379.561527 kJ/mol
# GULP energy per Si atom -5586.222595 kJ/mol
# Density = 2.514400 g / cm^3
# Si number density = 25.201357 Si / 1000 Ang^3
#
#
#
# Elastic Constant Matrix: (Units=GPa)
#
#
# Indices 1 2 3 4 5 6 
#
# 1 148.1294 57.5819 19.5768 -18.0088 17.7017 25.1837
# 2 57.5819 152.3153 6.1097 -39.8171 4.1774 16.7595
# 3 19.5768 6.1097 52.2729 -28.9556 5.1877 4.8357
# 4 -18.0088 -39.8171 -28.9556 35.7253 -6.2747 3.0100
# 5 17.7017 4.1774 5.1877 -6.2747 45.0419 -13.1457
# 6 25.1837 16.7595 4.8357 3.0100 -13.1457 54.7118
#
#
#
# Elastic Compliance Matrix: (Units=1/GPa)
#
#
# Indices 1 2 3 4 5 6 
#
# 1 0.009532 -0.003696 -0.004028 -0.003044 -0.004474 -0.003807
# 2 -0.003696 0.015664 0.016395 0.029473 0.000449 -0.006060
# 3 -0.004028 0.016395 0.053194 0.060140 -0.001020 -0.011423
# 4 -0.003044 0.029473 0.060140 0.109865 0.001398 -0.018651
# 5 -0.004474 0.000449 -0.001020 0.001398 0.026665 0.008342
# 6 -0.003807 -0.006060 -0.011423 -0.018651 0.008342 0.025926
#
#
# Mechanical properties :
#
#
# Convention : Reuss Voigt Hill
#
# Bulk Modulus (GPa) = 10.44583 57.69492 34.07038
# Shear Modulus (GPa) = 19.57601 45.05909 32.31755
#
# Velocity S-wave (km/s) = 2.79011 4.23302 3.58491
# Velocity P-wave (km/s) = 3.81229 6.84358 5.53932
#
# Compressibility (1/GPa) = 0.09573199
#
# Stress axis : x y z
#
# Youngs Moduli (GPa) = 104.91264 63.84116 18.79917
#
# Poissons Ratio (x) = 0.23596 0.07572
# Poissons Ratio (y) = 0.38776 -0.30822
# Poissons Ratio (z) = 0.42257 -1.04669
#
# Static dielectric constant tensor:
#      x y z
#    x 1.964910 -0.083130 -0.002820 
#    y -0.083130 2.098200 0.086950 
#    z -0.002820 0.086950 2.061270 
# 
# From -- ./inp_files/96870.got.cif
#   From: 2010.05.17/outbox.cif.g08.bks.cpg/sg2_49_cif.got.tgz:96870.got - 2010.06.03 11:33:40.
