data_PCOD9002175
_publ_section_title
;
Structure prediction by ZEFSAII (Michael W. Deem and Ramdas Pophale) SiO2 
 PCOD9002175
Probable space group: P -1
;
_chemical_formula_sum "Si O2"
_cell_formula_units_Z 14
_cell_length_a 11.039890
_cell_length_b 12.660651
_cell_length_c 23.046840
_cell_angle_alpha 32.569981
_cell_angle_beta 158.288465
_cell_angle_gamma 140.340701
_cell_volume 640.122522
_symmetry_space_group_name_H-M "P -1"
_symmetry_group_IT_number 2
_symmetry_cell_setting 'triclinic'
loop_
_space_group_symop_operation_xyz
x,y,z
-x,-y,-z
loop_
_atom_site_type_symbol
_atom_site_label
_atom_site_fract_x
_atom_site_fract_y
_atom_site_fract_z
Si Si1 0.830227 0.815250 0.350750
Si Si2 0.292334 0.871393 0.426772
Si Si3 0.169148 0.833709 0.610596
Si Si4 0.750487 0.657778 0.016216
Si Si5 0.985458 0.382442 0.730496
Si Si6 0.423310 0.453417 0.373547
Si Si7 0.710454 0.931294 0.068471
O O1 0.664653 0.619128 0.386048
O O2 0.033879 0.781552 0.397641
O O3 0.068587 0.884297 0.475957
O O4 0.516626 0.965791 0.129591
O O5 0.538361 0.711752 0.580914
O O6 0.072979 0.982339 0.227609
O O7 0.500000 0.000000 0.500000
O O8 0.043435 0.611438 0.661964
O O9 0.544322 0.802981 0.814175
O O10 0.000000 0.000000 0.500000
O O11 0.902825 0.736923 0.106865
O O12 0.058625 0.542893 0.176399
O O13 0.500000 0.500000 0.000000
O O14 0.604286 0.366154 0.552293
O O15 0.200961 0.289450 0.815248
O O16 0.500000 0.000000 0.000000
#
# Coordination Sequence:
#
# PCOD9002175 Si02
#       7
#     2   2   2   2   2   2   2
#     4  10  21  40  60  86 120 156 193 242 290 351
#     4  10  22  38  61  89 117 152 197 245 295 348
#     4  10  21  36  58  88 119 153 195 247 294 334
#     4  10  21  37  59  87 116 153 195 240 287 343
#     4   9  19  37  59  85 118 158 196 234 287 357
#     4  10  21  39  61  87 118 157 197 239 295 350
#     4   9  19  37  62  86 115 157 196 233 292 359
#
# _framework density 21.870812999999998
#
# number of rings (size 3 to 8) (size 9 to 14) (size 15 to 20)
#    0.000    2.286    0.000    1.714    0.000    9.143 
#    0.000   12.143    0.000    0.000    0.000    0.000 
#    0.000    0.000    0.000    0.000    0.000    0.000 
#
# Total GULP energy -77967.772505 kJ/mol
# GULP energy per Si atom -5569.126607 kJ/mol
# Density = 2.182103 g / cm^3
# Si number density = 21.870813 Si / 1000 Ang^3
#
#
#
# Elastic Constant Matrix: (Units=GPa)
#
#
# Indices 1 2 3 4 5 6 
#
# 1 85.6864 39.8578 66.3481 1.6264 7.5790 -27.2871
# 2 39.8578 93.5588 62.0743 -4.6145 11.8881 -34.9231
# 3 66.3481 62.0743 208.6371 14.8362 -0.4939 -38.7368
# 4 1.6264 -4.6145 14.8362 31.3880 -14.1538 8.2069
# 5 7.5790 11.8881 -0.4939 -14.1538 45.8148 -2.2394
# 6 -27.2871 -34.9231 -38.7368 8.2069 -2.2394 40.8199
#
#
#
# Elastic Compliance Matrix: (Units=1/GPa)
#
#
# Indices 1 2 3 4 5 6 
#
# 1 0.018110 -0.002542 -0.003512 -0.002787 -0.002893 0.007001
# 2 -0.002542 0.018114 -0.002395 -0.000887 -0.004018 0.011482
# 3 -0.003512 -0.002395 0.007682 -0.004817 -0.000014 0.003861
# 4 -0.002787 -0.000887 -0.004817 0.044283 0.013570 -0.015352
# 5 -0.002893 -0.004018 -0.000014 0.013570 0.027217 -0.006620
# 6 0.007001 0.011482 0.003861 -0.015352 -0.006620 0.045388
#
#
# Mechanical properties :
#
#
# Convention : Reuss Voigt Hill
#
# Bulk Modulus (GPa) = 37.02711 80.49365 58.76038
# Shear Modulus (GPa) = 26.78178 38.24468 32.51323
#
# Velocity S-wave (km/s) = 3.50315 4.18624 3.85983
# Velocity P-wave (km/s) = 5.77316 7.76210 6.84030
#
# Compressibility (1/GPa) = 0.02700724
#
# Stress axis : x y z
#
# Youngs Moduli (GPa) = 55.21725 55.20709 130.17952
#
# Poissons Ratio (x) = 0.14034 0.45716
# Poissons Ratio (y) = 0.14037 0.31182
# Poissons Ratio (z) = 0.19391 0.13224
#
# Static dielectric constant tensor:
#      x y z
#    x 1.878320 0.011490 -0.077650 
#    y 0.011490 1.848500 0.002960 
#    z -0.077650 0.002960 1.872800 
# 
# From -- ./inp_files/197261.got.cif
#   From: 2010.05.17/outbox.cif.g08.bks.cpg/sg2_99_cif.got.tgz:197261.got - 2010.06.03 11:33:40.
