data_PCOD9002362
_publ_section_title
;
Structure prediction by ZEFSAII (Michael W. Deem and Ramdas Pophale) SiO2 
 PCOD9002362
Probable space group: P -1
;
_chemical_formula_sum "Si O2"
_cell_formula_units_Z 12
_cell_length_a 5.614244
_cell_length_b 12.242053
_cell_length_c 7.848629
_cell_angle_alpha 63.365461
_cell_angle_beta 59.685108
_cell_angle_gamma 83.684912
_cell_volume 411.506323
_symmetry_space_group_name_H-M "P -1"
_symmetry_group_IT_number 2
_symmetry_cell_setting 'triclinic'
loop_
_space_group_symop_operation_xyz
x,y,z
-x,-y,-z
loop_
_atom_site_type_symbol
_atom_site_label
_atom_site_fract_x
_atom_site_fract_y
_atom_site_fract_z
Si Si1 0.829798 0.312634 0.774064
Si Si2 0.376596 0.894223 0.365233
Si Si3 0.161941 0.544892 0.646116
Si Si4 0.287555 0.378346 0.001695
Si Si5 0.099123 0.141456 0.007106
Si Si6 0.780900 0.905478 0.484899
O O1 0.080678 0.421713 0.648981
O O2 0.722307 0.346760 0.601791
O O3 0.577725 0.334395 0.973176
O O4 0.940136 0.187118 0.868291
O O5 0.529743 0.836546 0.509461
O O6 0.400073 0.109521 0.863102
O O7 0.050564 0.845824 0.481580
O O8 0.345812 0.032577 0.349203
O O9 0.889190 0.583450 0.805563
O O10 0.328600 0.497014 0.776690
O O11 0.131945 0.260206 0.036007
O O12 0.918234 0.024002 0.239877
#
# Coordination Sequence:
#
# PCOD9002362 Si02
#       6
#     2   2   2   2   2   2
#     4  10  21  36  60  86 120 159 201 251 304 366
#     4  10  23  43  66  90 126 168 206 255 317 377
#     4   9  20  40  56  84 120 162 202 242 310 369
#     4  10  21  36  60  86 120 159 201 251 304 366
#     4  11  24  36  60  96 118 156 208 258 308 367
#     4  10  23  43  66  90 126 168 206 255 317 377
#
# _framework density 29.161155999999998
#
# number of rings (size 3 to 8) (size 9 to 14) (size 15 to 20)
#    0.000    2.000    0.000    2.000    4.667    2.667 
#    3.000    3.333    0.000    0.000    0.000    0.000 
#    0.000    0.000    0.000    0.000    0.000    0.000 
#
# Total GULP energy -67253.683731 kJ/mol
# GULP energy per Si atom -5604.473644 kJ/mol
# Density = 2.909478 g / cm^3
# Si number density = 29.161156 Si / 1000 Ang^3
#
#
#
# Elastic Constant Matrix: (Units=GPa)
#
#
# Indices 1 2 3 4 5 6 
#
# 1 138.3759 42.8139 34.7393 -3.9824 6.8122 -37.4178
# 2 42.8139 168.6647 73.0354 7.3495 -14.7338 -34.4046
# 3 34.7393 73.0354 159.9521 -9.8711 5.0635 -17.9726
# 4 -3.9824 7.3495 -9.8711 60.3303 -6.7825 -8.2314
# 5 6.8122 -14.7338 5.0635 -6.7825 36.8554 7.0327
# 6 -37.4178 -34.4046 -17.9726 -8.2314 7.0327 74.4866
#
#
#
# Elastic Compliance Matrix: (Units=1/GPa)
#
#
# Indices 1 2 3 4 5 6 
#
# 1 0.009129 -0.001454 -0.000713 0.000910 -0.002787 0.004106
# 2 -0.001454 0.008602 -0.003577 -0.001058 0.003638 0.001919
# 3 -0.000713 -0.003577 0.008245 0.001537 -0.002216 0.000358
# 4 0.000910 -0.001058 0.001537 0.017528 0.002025 0.002085
# 5 -0.002787 0.003638 -0.002216 0.002025 0.030332 -0.002894
# 6 0.004106 0.001919 0.000358 0.002085 -0.002894 0.016965
#
#
# Mechanical properties :
#
#
# Convention : Reuss Voigt Hill
#
# Bulk Modulus (GPa) = 69.01909 85.35223 77.18566
# Shear Modulus (GPa) = 46.67681 55.42805 51.05243
#
# Velocity S-wave (km/s) = 4.00515 4.36449 4.18868
# Velocity P-wave (km/s) = 6.71624 7.39804 7.06537
#
# Compressibility (1/GPa) = 0.01448874
#
# Stress axis : x y z
#
# Youngs Moduli (GPa) = 109.53735 116.24699 121.28154
#
# Poissons Ratio (x) = 0.16904 0.08648
# Poissons Ratio (y) = 0.15929 0.43381
# Poissons Ratio (z) = 0.07810 0.41580
#
# Static dielectric constant tensor:
#      x y z
#    x 2.332290 0.062210 0.121350 
#    y 0.062210 2.203840 0.053490 
#    z 0.121350 0.053490 2.295750 
# 
# From -- ./inp_files/34632.got.cif
#   From: 2010.05.17/outbox.cif.g08.bks.cpg/sg2_18_cif.got.tgz:34632.got - 2010.06.03 11:33:40.
