data_PCOD9002631
_publ_section_title
;
Structure prediction by ZEFSAII (Michael W. Deem and Ramdas Pophale) SiO2 
 PCOD9002631
Probable space group: P -1
;
_chemical_formula_sum "Si O2"
_cell_formula_units_Z 16
_cell_length_a 21.872297
_cell_length_b 10.986488
_cell_length_c 12.995644
_cell_angle_alpha 40.708882
_cell_angle_beta 155.625850
_cell_angle_gamma 145.708313
_cell_volume 725.904051
_symmetry_space_group_name_H-M "P -1"
_symmetry_group_IT_number 2
_symmetry_cell_setting 'triclinic'
loop_
_space_group_symop_operation_xyz
x,y,z
-x,-y,-z
loop_
_atom_site_type_symbol
_atom_site_label
_atom_site_fract_x
_atom_site_fract_y
_atom_site_fract_z
Si Si1 0.813235 0.013033 0.183418
Si Si2 0.438052 0.670301 0.300755
Si Si3 0.578804 0.123450 0.278578
Si Si4 0.186064 0.156754 0.934613
Si Si5 0.428060 0.638391 0.076979
Si Si6 0.847350 0.439775 0.896749
Si Si7 0.314883 0.845375 0.366545
Si Si8 0.840972 0.852164 0.550041
O O1 0.790857 0.882141 0.126786
O O2 0.863714 0.919050 0.420129
O O3 0.910264 0.275962 0.145468
O O4 0.619869 0.955956 0.951625
O O5 0.500000 0.500000 0.500000
O O6 0.380523 0.679971 0.090586
O O7 0.291563 0.595175 0.208270
O O8 0.584334 0.906200 0.408664
O O9 0.675754 0.248133 0.449579
O O10 0.623205 0.248828 0.161134
O O11 0.321179 0.388633 0.038728
O O12 0.982547 0.072658 0.683010
O O13 0.232792 0.993113 0.165722
O O14 0.636632 0.741992 0.328852
O O15 0.783668 0.329968 0.758297
O O16 0.901752 0.685181 0.788313
O O17 0.500000 0.000000 0.500000
#
# Coordination Sequence:
#
# PCOD9002631 Si02
#       8
#     2   2   2   2   2   2   2   2
#     4   9  21  37  61  93 133 158 204 264 307 377
#     4  11  19  37  64  88 120 166 213 254 306 370
#     4  10  21  36  62  96 121 165 209 255 318 371
#     4  11  23  40  61  96 126 165 205 257 309 372
#     4  11  24  39  65  89 128 167 206 259 306 369
#     4  10  21  37  63  91 123 170 202 259 321 359
#     4  11  18  37  62  94 129 154 209 259 308 379
#     4  11  23  40  62  96 126 166 212 249 317 374
#
# _framework density 22.04148
#
# number of rings (size 3 to 8) (size 9 to 14) (size 15 to 20)
#    0.000    1.500    5.000    2.250    1.750    3.000 
#    2.250    0.625    0.000    7.500    0.000    0.000 
#    0.000    0.000    0.000    0.000    0.000    0.000 
#
# Total GULP energy -89085.991745 kJ/mol
# GULP energy per Si atom -5567.874484 kJ/mol
# Density = 2.199131 g / cm^3
# Si number density = 22.041480 Si / 1000 Ang^3
#
#
#
# Elastic Constant Matrix: (Units=GPa)
#
#
# Indices 1 2 3 4 5 6 
#
# 1 103.3503 32.0146 38.6607 -16.2337 -38.5408 -0.6477
# 2 32.0146 82.0348 36.4011 0.6739 1.8487 -0.5369
# 3 38.6607 36.4011 91.6575 0.2918 -22.8501 5.7260
# 4 -16.2337 0.6739 0.2918 25.6544 2.2400 -6.4632
# 5 -38.5408 1.8487 -22.8501 2.2400 40.1083 -5.0710
# 6 -0.6477 -0.5369 5.7260 -6.4632 -5.0710 31.4480
#
#
#
# Elastic Compliance Matrix: (Units=1/GPa)
#
#
# Indices 1 2 3 4 5 6 
#
# 1 0.024080 -0.009470 -0.001178 0.015360 0.022984 0.007412
# 2 -0.009470 0.019347 -0.007017 -0.005711 -0.013924 -0.002006
# 3 -0.001178 -0.007017 0.016428 -0.002035 0.008386 -0.002201
# 4 0.015360 -0.005711 -0.002035 0.051074 0.012671 0.013129
# 5 0.022984 -0.013924 0.008386 0.012671 0.052976 0.009855
# 6 0.007412 -0.002006 -0.002201 0.013129 0.009855 0.036605
#
#
# Mechanical properties :
#
#
# Convention : Reuss Voigt Hill
#
# Bulk Modulus (GPa) = 40.77404 54.57727 47.67565
# Shear Modulus (GPa) = 20.49053 30.77322 25.63188
#
# Velocity S-wave (km/s) = 3.05230 3.74056 3.41382
# Velocity P-wave (km/s) = 5.56426 6.59323 6.10048
#
# Compressibility (1/GPa) = 0.02452541
#
# Stress axis : x y z
#
# Youngs Moduli (GPa) = 41.52800 51.68796 60.87051
#
# Poissons Ratio (x) = 0.48950 0.07170
# Poissons Ratio (y) = 0.39329 0.42711
# Poissons Ratio (z) = 0.04892 0.36268
#
# Static dielectric constant tensor:
#      x y z
#    x 1.804600 0.054530 -0.003940 
#    y 0.054530 1.867090 -0.014490 
#    z -0.003940 -0.014490 1.858940 
# 
# From -- ./inp_files/469877.got.cif
#   From: 2010.05.17/outbox.cif.g08.bks.cpg/sg2_235_cif.got.tgz:469877.got - 2010.06.03 11:33:40.
