data_PCOD9002662
_publ_section_title
;
Structure prediction by ZEFSAII (Michael W. Deem and Ramdas Pophale) SiO2 
 PCOD9002662
Probable space group: P -1
;
_chemical_formula_sum "Si O2"
_cell_formula_units_Z 16
_cell_length_a 9.327607
_cell_length_b 14.346530
_cell_length_c 10.978592
_cell_angle_alpha 148.177138
_cell_angle_beta 81.362147
_cell_angle_gamma 103.951418
_cell_volume 747.516194
_symmetry_space_group_name_H-M "P -1"
_symmetry_group_IT_number 2
_symmetry_cell_setting 'triclinic'
loop_
_space_group_symop_operation_xyz
x,y,z
-x,-y,-z
loop_
_atom_site_type_symbol
_atom_site_label
_atom_site_fract_x
_atom_site_fract_y
_atom_site_fract_z
Si Si1 0.527301 0.363205 0.739883
Si Si2 0.128620 0.640637 0.309874
Si Si3 0.185857 0.661788 0.716720
Si Si4 0.466692 0.612222 0.509997
Si Si5 0.988587 0.260948 0.827149
Si Si6 0.734940 0.927880 0.810075
Si Si7 0.946188 0.719921 0.634899
Si Si8 0.770522 0.906933 0.516626
O O1 0.694375 0.333563 0.689744
O O2 0.505983 0.440527 0.691965
O O3 0.403892 0.176957 0.571227
O O4 0.500000 0.500000 0.000000
O O5 0.068071 0.687604 0.239327
O O6 0.068847 0.749186 0.545400
O O7 0.051079 0.427471 0.092601
O O8 0.295016 0.620351 0.551193
O O9 0.160535 0.479236 0.596749
O O10 0.030885 0.691576 0.716206
O O11 0.262482 0.862094 0.974031
O O12 0.500000 0.500000 0.500000
O O13 0.573162 0.810521 0.728851
O O14 0.130787 0.176864 0.683955
O O15 0.847403 0.117970 0.736526
O O16 0.850156 0.871450 0.826799
O O17 0.790933 0.853755 0.594760
#
# Coordination Sequence:
#
# PCOD9002662 Si02
#       8
#     2   2   2   2   2   2   2   2
#     4  11  23  42  66  93 130 170 214 270 328 383
#     4  11  21  39  64  90 125 167 214 265 327 387
#     4  11  23  40  63  93 127 167 215 265 323 383
#     4  11  23  43  67  94 132 172 218 267 322 392
#     4  10  21  36  63  88 120 164 216 255 327 378
#     4  11  22  40  64  89 130 168 216 261 329 380
#     4  11  22  39  63  93 127 163 215 273 319 381
#     4  10  21  39  58  89 126 163 208 270 310 390
#
# _framework density 21.404219000000001
#
# number of rings (size 3 to 8) (size 9 to 14) (size 15 to 20)
#    0.000    1.250    5.000    1.500    0.000    0.500 
#    2.250    1.250    0.000    0.000    0.000    0.000 
#    0.000    0.000    0.000    0.000    0.000    0.000 
#
# Total GULP energy -89151.625021 kJ/mol
# GULP energy per Si atom -5571.976564 kJ/mol
# Density = 2.135550 g / cm^3
# Si number density = 21.404219 Si / 1000 Ang^3
#
#
#
# Elastic Constant Matrix: (Units=GPa)
#
#
# Indices 1 2 3 4 5 6 
#
# 1 80.5954 15.9836 14.5659 9.0984 14.3764 22.6847
# 2 15.9836 80.1021 24.8116 4.0983 0.5913 24.3609
# 3 14.5659 24.8116 51.1517 14.1975 8.8192 18.9229
# 4 9.0984 4.0983 14.1975 37.8104 10.2536 5.6183
# 5 14.3764 0.5913 8.8192 10.2536 28.9818 4.2611
# 6 22.6847 24.3609 18.9229 5.6183 4.2611 35.5754
#
#
#
# Elastic Compliance Matrix: (Units=1/GPa)
#
#
# Indices 1 2 3 4 5 6 
#
# 1 0.016332 -0.000428 0.000407 -0.000867 -0.006525 -0.009419
# 2 -0.000428 0.016888 -0.005510 0.000974 0.002496 -0.008814
# 3 0.000407 -0.005510 0.028704 -0.007519 -0.004693 -0.010005
# 4 -0.000867 0.000974 -0.007519 0.031694 -0.008500 -0.000102
# 5 -0.006525 0.002496 -0.004693 -0.008500 0.041939 0.001267
# 6 -0.009419 -0.008814 -0.010005 -0.000102 0.001267 0.045337
#
#
# Mechanical properties :
#
#
# Convention : Reuss Voigt Hill
#
# Bulk Modulus (GPa) = 19.66097 35.84125 27.75111
# Shear Modulus (GPa) = 23.93372 30.90607 27.41990
#
# Velocity S-wave (km/s) = 3.34754 3.80402 3.58306
# Velocity P-wave (km/s) = 4.91395 6.00628 5.48736
#
# Compressibility (1/GPa) = 0.05086218
#
# Stress axis : x y z
#
# Youngs Moduli (GPa) = 61.22993 59.21229 34.83855
#
# Poissons Ratio (x) = 0.02533 -0.01418
# Poissons Ratio (y) = 0.02620 0.19197
# Poissons Ratio (z) = -0.02493 0.32627
#
# Static dielectric constant tensor:
#      x y z
#    x 1.792520 -0.022770 0.026410 
#    y -0.022770 1.826720 0.021850 
#    z 0.026410 0.021850 1.836970 
# 
# From -- ./inp_files/207176.got.cif
#   From: 2010.05.17/outbox.cif.g08.bks.cpg/sg2_104_cif.got.tgz:207176.got - 2010.06.03 11:33:40.
