data_PCOD9002601
_publ_section_title
;
Structure prediction by ZEFSAII (Michael W. Deem and Ramdas Pophale) SiO2 
 PCOD9002601
Probable space group: P -1
;
_chemical_formula_sum "Si O2"
_cell_formula_units_Z 16
_cell_length_a 6.989432
_cell_length_b 13.527466
_cell_length_c 14.010728
_cell_angle_alpha 117.680014
_cell_angle_beta 61.101292
_cell_angle_gamma 72.298909
_cell_volume 751.359987
_symmetry_space_group_name_H-M "P -1"
_symmetry_group_IT_number 2
_symmetry_cell_setting 'triclinic'
loop_
_space_group_symop_operation_xyz
x,y,z
-x,-y,-z
loop_
_atom_site_type_symbol
_atom_site_label
_atom_site_fract_x
_atom_site_fract_y
_atom_site_fract_z
Si Si1 0.216737 0.821410 0.355039
Si Si2 0.683436 0.552407 0.860627
Si Si3 0.349346 0.170962 0.825757
Si Si4 0.755404 0.902559 0.756407
Si Si5 0.842688 0.966156 0.952109
Si Si6 0.683021 0.385174 0.605917
Si Si7 0.032469 0.656031 0.829905
Si Si8 0.938459 0.286941 0.813419
O O1 0.498409 0.764243 0.201363
O O2 0.323394 0.728041 0.384127
O O3 0.045204 0.793003 0.320015
O O4 0.000000 0.000000 0.500000
O O5 0.707862 0.472417 0.720483
O O6 0.876560 0.430170 0.846290
O O7 0.810199 0.632049 0.845291
O O8 0.346087 0.652993 0.026957
O O9 0.232337 0.170633 0.752891
O O10 0.585532 0.013229 0.755190
O O11 0.061437 0.287381 0.012904
O O12 0.848136 0.971269 0.837517
O O13 0.027878 0.730471 0.581869
O O14 0.499749 0.922021 0.881150
O O15 0.975995 0.795197 0.857749
O O16 0.000000 0.000000 0.000000
O O17 0.378453 0.504777 0.674717
#
# Coordination Sequence:
#
# PCOD9002601 Si02
#       8
#     2   2   2   2   2   2   2   2
#     4  11  22  38  59  95 140 179 216 265 307 381
#     4  10  21  38  60  96 135 174 215 266 309 386
#     4  11  21  39  64  92 131 182 216 258 322 385
#     4  10  24  45  65  97 134 162 216 282 328 392
#     4  10  25  49  73  93 121 168 223 276 344 397
#     4  11  23  40  63 101 137 169 214 267 328 383
#     4  11  23  40  68  96 124 172 222 271 329 387
#     4  10  21  36  62  91 135 180 223 251 312 383
#
# _framework density 21.294718
#
# number of rings (size 3 to 8) (size 9 to 14) (size 15 to 20)
#    0.000    1.500    3.750    0.750    0.000    8.000 
#    2.250    1.250    0.000    0.000    0.000    0.000 
#    0.000    0.000    0.000    0.000    0.000    0.000 
#
# Total GULP energy -89284.615185 kJ/mol
# GULP energy per Si atom -5580.288449 kJ/mol
# Density = 2.124625 g / cm^3
# Si number density = 21.294718 Si / 1000 Ang^3
#
#
#
# Elastic Constant Matrix: (Units=GPa)
#
#
# Indices 1 2 3 4 5 6 
#
# 1 94.4898 42.7973 10.1006 11.0870 4.7306 -10.8137
# 2 42.7973 86.3633 18.4987 17.7399 -2.8373 -2.9622
# 3 10.1006 18.4987 82.8069 15.2564 -5.9339 -1.3973
# 4 11.0870 17.7399 15.2564 27.3439 -3.4506 3.8466
# 5 4.7306 -2.8373 -5.9339 -3.4506 24.4908 3.1856
# 6 -10.8137 -2.9622 -1.3973 3.8466 3.1856 24.7816
#
#
#
# Elastic Compliance Matrix: (Units=1/GPa)
#
#
# Indices 1 2 3 4 5 6 
#
# 1 0.015062 -0.006703 0.000041 -0.003398 -0.005059 0.006951
# 2 -0.006703 0.016722 -0.001488 -0.007038 0.001901 -0.000162
# 3 0.000041 -0.001488 0.013807 -0.006693 0.002040 0.001395
# 4 -0.003398 -0.007038 -0.006693 0.048631 0.006513 -0.011087
# 5 -0.005059 0.001901 0.002040 0.006513 0.044560 -0.008604
# 6 0.006951 -0.000162 0.001395 -0.011087 -0.008604 0.046272
#
#
# Mechanical properties :
#
#
# Convention : Reuss Voigt Hill
#
# Bulk Modulus (GPa) = 34.13961 45.16146 39.65053
# Shear Modulus (GPa) = 23.68354 28.14081 25.91218
#
# Velocity S-wave (km/s) = 3.33855 3.63918 3.49210
# Velocity P-wave (km/s) = 5.56130 6.23795 5.90932
#
# Compressibility (1/GPa) = 0.02929149
#
# Stress axis : x y z
#
# Youngs Moduli (GPa) = 66.39189 59.80233 72.42891
#
# Poissons Ratio (x) = 0.40083 -0.00296
# Poissons Ratio (y) = 0.44500 0.10776
# Poissons Ratio (z) = -0.00271 0.08897
#
# Static dielectric constant tensor:
#      x y z
#    x 1.787980 -0.017620 0.016210 
#    y -0.017620 1.837050 -0.030130 
#    z 0.016210 -0.030130 1.801980 
# 
# From -- ./inp_files/272291.got.cif
#   From: 2010.05.17/outbox.cif.g08.bks.cpg/sg2_137_cif.got.tgz:272291.got - 2010.06.03 11:33:40.
