data_PCOD9002278
_publ_section_title
;
Structure prediction by ZEFSAII (Michael W. Deem and Ramdas Pophale) SiO2 
 PCOD9002278
Probable space group: P -1
;
_chemical_formula_sum "Si O2"
_cell_formula_units_Z 12
_cell_length_a 10.802396
_cell_length_b 8.547420
_cell_length_c 15.092816
_cell_angle_alpha 149.107121
_cell_angle_beta 50.054976
_cell_angle_gamma 136.352230
_cell_volume 492.978416
_symmetry_space_group_name_H-M "P -1"
_symmetry_group_IT_number 2
_symmetry_cell_setting 'triclinic'
loop_
_space_group_symop_operation_xyz
x,y,z
-x,-y,-z
loop_
_atom_site_type_symbol
_atom_site_label
_atom_site_fract_x
_atom_site_fract_y
_atom_site_fract_z
Si Si1 0.869726 0.089080 0.757883
Si Si2 0.464101 0.680439 0.713784
Si Si3 0.272857 0.954231 0.812443
Si Si4 0.823491 0.161985 0.014578
Si Si5 0.027546 0.571164 0.417500
Si Si6 0.442298 0.949172 0.399659
O O1 0.999738 0.485608 0.877080
O O2 0.668215 0.966588 0.755197
O O3 0.850738 0.022920 0.841037
O O4 0.961767 0.861136 0.567534
O O5 0.653408 0.306454 0.308917
O O6 0.345287 0.745145 0.876124
O O7 0.464375 0.323479 0.549320
O O8 0.226406 0.061518 0.981145
O O9 0.432211 0.165649 0.773981
O O10 0.098725 0.760756 0.739793
O O11 0.000000 0.500000 0.500000
O O12 0.234676 0.707243 0.367281
O O13 0.500000 0.000000 0.500000
#
# Coordination Sequence:
#
# PCOD9002278 Si02
#       6
#     2   2   2   2   2   2
#     4  11  20  39  60  88 120 154 189 240 298 341
#     4  10  21  36  59  89 117 151 193 241 284 343
#     4  10  23  37  58  91 114 152 200 241 286 337
#     4   9  23  36  59  90 117 153 193 241 289 342
#     4  12  23  38  61  85 119 156 194 241 295 345
#     4  12  22  38  59  86 119 155 193 240 296 345
#
# _framework density 24.341837000000002
#
# number of rings (size 3 to 8) (size 9 to 14) (size 15 to 20)
#    1.000    0.333    5.000    1.000    2.333    1.333 
#    0.000    0.833    0.000    2.000    0.000    0.000 
#    0.000    0.000    0.000    0.000    0.000    0.000 
#
# Total GULP energy -67035.928262 kJ/mol
# GULP energy per Si atom -5586.327355 kJ/mol
# Density = 2.428643 g / cm^3
# Si number density = 24.341837 Si / 1000 Ang^3
#
#
#
# Elastic Constant Matrix: (Units=GPa)
#
#
# Indices 1 2 3 4 5 6 
#
# 1 104.6025 42.8353 16.3204 -5.9830 10.7319 35.6908
# 2 42.8353 110.1473 41.0184 -31.8916 4.8097 47.4997
# 3 16.3204 41.0184 89.2859 -23.6438 -6.4683 14.0909
# 4 -5.9830 -31.8916 -23.6438 39.7241 -3.4984 1.1334
# 5 10.7319 4.8097 -6.4683 -3.4984 28.0527 -6.5748
# 6 35.6908 47.4997 14.0909 1.1334 -6.5748 60.5947
#
#
#
# Elastic Compliance Matrix: (Units=1/GPa)
#
#
# Indices 1 2 3 4 5 6 
#
# 1 0.013532 -0.001397 -0.001238 -0.000225 -0.006971 -0.007340
# 2 -0.001397 0.024037 -0.004008 0.016630 -0.006685 -0.018124
# 3 -0.001238 -0.004008 0.015152 0.006085 0.005611 0.000842
# 4 -0.000225 0.016630 0.006085 0.042580 0.000416 -0.015070
# 5 -0.006971 -0.006685 0.005611 0.000416 0.043802 0.012786
# 6 -0.007340 -0.018124 0.000842 -0.015070 0.012786 0.036507
#
#
# Mechanical properties :
#
#
# Convention : Reuss Voigt Hill
#
# Bulk Modulus (GPa) = 25.35719 56.04267 40.69993
# Shear Modulus (GPa) = 24.74749 39.26506 32.00628
#
# Velocity S-wave (km/s) = 3.19198 4.02066 3.63004
# Velocity P-wave (km/s) = 4.90150 6.68038 5.85885
#
# Compressibility (1/GPa) = 0.03943655
#
# Stress axis : x y z
#
# Youngs Moduli (GPa) = 73.89965 41.60203 65.99681
#
# Poissons Ratio (x) = 0.05812 0.08169
# Poissons Ratio (y) = 0.10324 0.26448
# Poissons Ratio (z) = 0.09148 0.16672
#
# Static dielectric constant tensor:
#      x y z
#    x 1.889430 -0.040050 -0.019420 
#    y -0.040050 1.987500 -0.092940 
#    z -0.019420 -0.092940 2.044910 
# 
# From -- ./inp_files/218672.got.cif
#   From: 2010.05.17/outbox.cif.g08.bks.cpg/sg2_110_cif.got.tgz:218672.got - 2010.06.03 11:33:40.
