data_PCOD9002282
_publ_section_title
;
Structure prediction by ZEFSAII (Michael W. Deem and Ramdas Pophale) SiO2 
 PCOD9002282
Probable space group: P -1
;
_chemical_formula_sum "Si O2"
_cell_formula_units_Z 16
_cell_length_a 18.636028
_cell_length_b 7.647609
_cell_length_c 8.107933
_cell_angle_alpha 142.997173
_cell_angle_beta 115.576169
_cell_angle_gamma 64.277837
_cell_volume 618.791722
_symmetry_space_group_name_H-M "P -1"
_symmetry_group_IT_number 2
_symmetry_cell_setting 'triclinic'
loop_
_space_group_symop_operation_xyz
x,y,z
-x,-y,-z
loop_
_atom_site_type_symbol
_atom_site_label
_atom_site_fract_x
_atom_site_fract_y
_atom_site_fract_z
Si Si1 0.483938 0.719542 0.877152
Si Si2 0.210500 0.289736 0.001896
Si Si3 0.335450 0.532547 0.138334
Si Si4 0.716064 0.815094 0.453124
Si Si5 0.134752 0.111875 0.133856
Si Si6 0.882455 0.090906 0.575511
Si Si7 0.957010 0.275173 0.443558
Si Si8 0.572869 0.863753 0.594815
O O1 0.449087 0.432797 0.565192
O O2 0.574555 0.584373 0.917592
O O3 0.500000 0.000000 0.000000
O O4 0.426900 0.868221 0.077711
O O5 0.184930 0.185897 0.076329
O O6 0.151309 0.598459 0.143168
O O7 0.300331 0.356105 0.117709
O O8 0.190602 0.064569 0.674966
O O9 0.282216 0.459120 0.873734
O O10 0.326506 0.873411 0.430822
O O11 0.801944 0.874143 0.647675
O O12 0.656167 0.778102 0.516502
O O13 0.060257 0.376889 0.287186
O O14 0.096504 0.827672 0.833399
O O15 0.922389 0.159071 0.491769
O O16 0.951069 0.884065 0.588480
O O17 0.500000 0.000000 0.500000
#
# Coordination Sequence:
#
# PCOD9002282 Si02
#       8
#     2   2   2   2   2   2   2   2
#     4  12  26  44  67  98 125 161 208 267 314 358
#     4  10  21  36  59  89 122 153 205 249 307 360
#     4  12  24  43  61  89 127 167 199 250 314 375
#     4  12  25  41  66  87 125 169 205 248 306 369
#     4  10  21  37  58  93 116 157 203 256 297 354
#     4   9  17  33  58  89 116 159 193 253 307 355
#     4   9  17  33  59  87 122 147 204 254 299 352
#     4  12  23  46  68  92 124 167 216 250 302 384
#
# _framework density 25.856840999999999
#
# number of rings (size 3 to 8) (size 9 to 14) (size 15 to 20)
#    0.000    1.250    2.500    3.750    1.750    3.000 
#    4.500    0.000    0.000   15.000    0.000    0.000 
#    0.000    0.000    0.000    0.000    0.000    0.000 
#
# Total GULP energy -89609.646212 kJ/mol
# GULP energy per Si atom -5600.602888 kJ/mol
# Density = 2.579799 g / cm^3
# Si number density = 25.856841 Si / 1000 Ang^3
#
#
#
# Elastic Constant Matrix: (Units=GPa)
#
#
# Indices 1 2 3 4 5 6 
#
# 1 105.8440 14.6200 16.6897 6.8714 5.9681 7.6253
# 2 14.6200 48.2723 8.4994 -1.8149 3.7933 3.9451
# 3 16.6897 8.4994 113.3710 11.7743 -10.2376 0.0973
# 4 6.8714 -1.8149 11.7743 31.2725 0.4179 8.9647
# 5 5.9681 3.7933 -10.2376 0.4179 33.5214 9.9598
# 6 7.6253 3.9451 0.0973 8.9647 9.9598 36.6497
#
#
#
# Elastic Compliance Matrix: (Units=1/GPa)
#
#
# Indices 1 2 3 4 5 6 
#
# 1 0.010298 -0.002746 -0.001284 -0.001627 -0.001594 -0.001013
# 2 -0.002746 0.022306 -0.001778 0.003184 -0.002006 -0.002059
# 3 -0.001284 -0.001778 0.009828 -0.003688 0.003352 0.000424
# 4 -0.001627 0.003184 -0.003688 0.036539 0.001089 -0.009228
# 5 -0.001594 -0.002006 0.003352 0.001089 0.034018 -0.008973
# 6 -0.001013 -0.002059 0.000424 -0.009228 -0.008973 0.032412
#
#
# Mechanical properties :
#
#
# Convention : Reuss Voigt Hill
#
# Bulk Modulus (GPa) = 32.45092 38.56727 35.50910
# Shear Modulus (GPa) = 29.88817 35.46728 32.67772
#
# Velocity S-wave (km/s) = 3.40356 3.70764 3.55884
# Velocity P-wave (km/s) = 5.29368 5.76861 5.53624
#
# Compressibility (1/GPa) = 0.03081576
#
# Stress axis : x y z
#
# Youngs Moduli (GPa) = 97.10525 44.83051 101.74763
#
# Poissons Ratio (x) = 0.12310 0.13067
# Poissons Ratio (y) = 0.26665 0.18093
# Poissons Ratio (z) = 0.12470 0.07972
#
# Static dielectric constant tensor:
#      x y z
#    x 2.048200 0.086070 -0.000610 
#    y 0.086070 2.067640 -0.041300 
#    z -0.000610 -0.041300 1.910540 
# 
# From -- ./inp_files/217785.got.cif
#   From: 2010.05.17/outbox.cif.g08.bks.cpg/sg2_109_cif.got.tgz:217785.got - 2010.06.03 11:33:40.
