data_PCOD9002497
_publ_section_title
;
Structure prediction by ZEFSAII (Michael W. Deem and Ramdas Pophale) SiO2 
 PCOD9002497
Probable space group: P -1
;
_chemical_formula_sum "Si O2"
_cell_formula_units_Z 16
_cell_length_a 13.042943
_cell_length_b 4.979694
_cell_length_c 15.274594
_cell_angle_alpha 82.457132
_cell_angle_beta 125.040275
_cell_angle_gamma 113.652201
_cell_volume 737.513552
_symmetry_space_group_name_H-M "P -1"
_symmetry_group_IT_number 2
_symmetry_cell_setting 'triclinic'
loop_
_space_group_symop_operation_xyz
x,y,z
-x,-y,-z
loop_
_atom_site_type_symbol
_atom_site_label
_atom_site_fract_x
_atom_site_fract_y
_atom_site_fract_z
Si Si1 0.849502 0.474084 0.441872
Si Si2 0.318061 0.912534 0.081453
Si Si3 0.706826 0.869675 0.310112
Si Si4 0.982025 0.209248 0.056879
Si Si5 0.743538 0.408929 0.745982
Si Si6 0.537055 0.540421 0.403527
Si Si7 0.517411 0.430164 0.911275
Si Si8 0.688288 0.153534 0.542900
O O1 0.829662 0.767448 0.391915
O O2 0.802978 0.365798 0.522640
O O3 0.000000 0.500000 0.500000
O O4 0.749196 0.205467 0.344179
O O5 0.172216 0.907396 0.977375
O O6 0.291311 0.782109 0.172968
O O7 0.379544 0.724261 0.059730
O O8 0.424966 0.249917 0.120550
O O9 0.592648 0.657153 0.329967
O O10 0.632625 0.788042 0.185376
O O11 0.000000 0.500000 0.000000
O O12 0.109536 0.319438 0.181139
O O13 0.000000 0.000000 0.000000
O O14 0.618885 0.508035 0.669286
O O15 0.739454 0.226281 0.663808
O O16 0.565503 0.258647 0.457019
O O17 0.634293 0.817006 0.498765
O O18 0.500000 0.500000 0.000000
#
# Coordination Sequence:
#
# PCOD9002497 Si02
#       8
#     2   2   2   2   2   2   2   2
#     4  10  21  41  65  87 132 164 206 253 315 379
#     4  11  24  42  68  90 131 171 208 269 331 370
#     4  10  21  39  65  91 117 165 208 256 323 372
#     4  10  23  40  61  93 124 172 216 249 316 397
#     4  11  22  40  65  90 132 166 209 253 320 379
#     4  10  21  36  61  88 130 158 204 252 313 364
#     4  12  25  45  67  98 123 161 224 275 318 381
#     4  10  23  37  57 100 122 162 209 255 296 381
#
# _framework density 21.694514999999999
#
# number of rings (size 3 to 8) (size 9 to 14) (size 15 to 20)
#    0.000    1.500    1.250    3.750    3.500    4.000 
#    4.500    0.000    0.000    0.000    0.000    0.000 
#    0.000    0.000    0.000    0.000    0.000    0.000 
#
# Total GULP energy -89442.224109 kJ/mol
# GULP energy per Si atom -5590.139007 kJ/mol
# Density = 2.164514 g / cm^3
# Si number density = 21.694515 Si / 1000 Ang^3
#
#
#
# Elastic Constant Matrix: (Units=GPa)
#
#
# Indices 1 2 3 4 5 6 
#
# 1 114.6539 7.3431 54.8526 2.5847 3.6286 -21.2848
# 2 7.3431 87.1367 8.3573 12.7490 -4.0621 -22.0222
# 3 54.8526 8.3573 123.3198 25.6877 -10.4087 -6.3557
# 4 2.5847 12.7490 25.6877 27.5473 -9.4729 -2.6625
# 5 3.6286 -4.0621 -10.4087 -9.4729 35.5424 3.4896
# 6 -21.2848 -22.0222 -6.3557 -2.6625 3.4896 32.6589
#
#
#
# Elastic Compliance Matrix: (Units=1/GPa)
#
#
# Indices 1 2 3 4 5 6 
#
# 1 0.013556 0.000948 -0.006823 0.004493 -0.002943 0.008827
# 2 0.000948 0.014899 0.000414 -0.006746 -0.001083 0.010311
# 3 -0.006823 0.000414 0.013604 -0.011868 0.001828 -0.002684
# 4 0.004493 -0.006746 -0.011868 0.053297 0.009559 -0.000607
# 5 -0.002943 -0.001083 0.001828 0.009559 0.031878 -0.004920
# 6 0.008827 0.010311 -0.002684 -0.000607 -0.004920 0.043279
#
#
# Mechanical properties :
#
#
# Convention : Reuss Voigt Hill
#
# Bulk Modulus (GPa) = 32.11663 51.80183 41.95923
# Shear Modulus (GPa) = 26.06674 36.12021 31.09348
#
# Velocity S-wave (km/s) = 3.47008 4.08480 3.78992
# Velocity P-wave (km/s) = 5.55801 6.79538 6.20760
#
# Compressibility (1/GPa) = 0.03113652
#
# Stress axis : x y z
#
# Youngs Moduli (GPa) = 73.76684 67.11840 73.50739
#
# Poissons Ratio (x) = -0.06366 0.50157
# Poissons Ratio (y) = -0.06996 -0.03040
# Poissons Ratio (z) = 0.50334 -0.02776
#
# Static dielectric constant tensor:
#      x y z
#    x 1.825900 -0.002710 0.003900 
#    y -0.002710 1.781190 -0.010400 
#    z 0.003900 -0.010400 1.831060 
# 
# From -- ./inp_files/511106.got.cif
#   From: 2010.05.17/outbox.cif.g08.bks.cpg/sg2_256_cif.got.tgz:511106.got - 2010.06.03 11:33:40.
