data_PCOD9003964
_publ_section_title
;
Structure prediction by ZEFSAII (Michael W. Deem and Ramdas Pophale) SiO2 
 PCOD9003964
Probable space group: P -1
;
_chemical_formula_sum "Si O2"
_cell_formula_units_Z 14
_cell_length_a 13.810912
_cell_length_b 25.223858
_cell_length_c 25.364998
_cell_angle_alpha 168.034799
_cell_angle_beta 159.924937
_cell_angle_gamma 20.663761
_cell_volume 610.967150
_symmetry_space_group_name_H-M "P -1"
_symmetry_group_IT_number 2
_symmetry_cell_setting 'triclinic'
loop_
_space_group_symop_operation_xyz
x,y,z
-x,-y,-z
loop_
_atom_site_type_symbol
_atom_site_label
_atom_site_fract_x
_atom_site_fract_y
_atom_site_fract_z
Si Si1 0.274817 0.256617 0.694722
Si Si2 0.430634 0.037133 0.062976
Si Si3 0.426793 0.531551 0.368050
Si Si4 0.922788 0.745583 0.238830
Si Si5 0.867572 0.183063 0.865071
Si Si6 0.998875 0.577372 0.513521
Si Si7 0.360809 0.829009 0.096474
O O1 0.537220 0.234328 0.765443
O O2 0.434719 0.196774 0.773196
O O3 0.097253 0.046410 0.382901
O O4 0.086716 0.551060 0.878628
O O5 0.078847 0.098964 0.940566
O O6 0.554316 0.763701 0.889691
O O7 0.514939 0.279618 0.371414
O O8 0.500000 0.000000 0.000000
O O9 0.125492 0.660350 0.310707
O O10 0.686167 0.505734 0.432917
O O11 0.583950 0.808582 0.141981
O O12 0.000000 0.000000 0.500000
O O13 0.000000 0.500000 0.000000
O O14 0.000000 0.500000 0.500000
O O15 0.865465 0.889582 0.745091
O O16 0.794238 0.412069 0.219632
#
# Coordination Sequence:
#
# PCOD9003964 Si02
#       7
#     2   2   2   2   2   2   2
#     4  10  21  37  63  90 124 172 210 281 325 392
#     4  12  27  43  70 100 144 191 239 278 343 430
#     4  12  26  47  73 103 146 188 232 297 359 413
#     4  12  27  48  71 104 144 185 231 291 359 426
#     4  10  21  38  60  91 132 162 223 269 328 381
#     4  12  25  45  73 104 136 178 235 298 359 419
#     4  12  25  42  72  99 135 175 237 278 350 418
#
# _framework density 22.914486
#
# number of rings (size 3 to 8) (size 9 to 14) (size 15 to 20)
#    0.000    0.571    0.000    8.571    4.000    2.286 
#    0.000    0.000    0.000    0.000    0.000    0.000 
#    0.000    0.000    0.000    0.000    0.000    0.000 
#
# Total GULP energy -78440.213879 kJ/mol
# GULP energy per Si atom -5602.872420 kJ/mol
# Density = 2.286233 g / cm^3
# Si number density = 22.914486 Si / 1000 Ang^3
#
#
#
# Elastic Constant Matrix: (Units=GPa)
#
#
# Indices 1 2 3 4 5 6 
#
# 1 78.0181 -4.6226 6.0547 13.0157 -9.2201 -11.7942
# 2 -4.6226 88.1956 14.0029 12.3910 -6.4932 1.8350
# 3 6.0547 14.0029 123.0102 21.7735 -25.5334 -1.4936
# 4 13.0157 12.3910 21.7735 42.8816 9.9492 3.7333
# 5 -9.2201 -6.4932 -25.5334 9.9492 39.7137 -4.3875
# 6 -11.7942 1.8350 -1.4936 3.7333 -4.3875 56.3938
#
#
#
# Elastic Compliance Matrix: (Units=1/GPa)
#
#
# Indices 1 2 3 4 5 6 
#
# 1 0.015949 0.002249 0.002340 -0.009011 0.008337 0.004569
# 2 0.002249 0.012473 0.000334 -0.005507 0.004241 0.000768
# 3 0.002340 0.000334 0.011988 -0.009639 0.010973 0.002288
# 4 -0.009011 -0.005507 -0.009639 0.037523 -0.019246 -0.005942
# 5 0.008337 0.004241 0.010973 -0.019246 0.040383 0.006312
# 6 0.004569 0.000768 0.002288 -0.005942 0.006312 0.019608
#
#
# Mechanical properties :
#
#
# Convention : Reuss Voigt Hill
#
# Bulk Modulus (GPa) = 19.89838 35.56597 27.73218
# Shear Modulus (GPa) = 34.52328 46.05042 40.28685
#
# Velocity S-wave (km/s) = 3.88572 4.48779 4.19757
# Velocity P-wave (km/s) = 5.36977 6.51219 5.96837
#
# Compressibility (1/GPa) = 0.05025535
#
# Stress axis : x y z
#
# Youngs Moduli (GPa) = 62.70150 80.17133 83.41896
#
# Poissons Ratio (x) = -0.18032 -0.19520
# Poissons Ratio (y) = -0.14102 -0.02784
# Poissons Ratio (z) = -0.14672 -0.02676
#
# Static dielectric constant tensor:
#      x y z
#    x 1.888480 -0.065890 0.005850 
#    y -0.065890 1.829930 -0.017860 
#    z 0.005850 -0.017860 1.796560 
# 
# From -- ./inp_files/410641.got.cif
#   From: 2010.05.17/outbox.cif.g08.bks.cpg/sg2_206_cif.got.tgz:410641.got - 2010.06.03 11:33:40.
