data_PCOD9003959
_publ_section_title
;
Structure prediction by ZEFSAII (Michael W. Deem and Ramdas Pophale) SiO2 
 PCOD9003959
Probable space group: P -1
;
_chemical_formula_sum "Si O2"
_cell_formula_units_Z 14
_cell_length_a 13.108289
_cell_length_b 6.815910
_cell_length_c 14.678730
_cell_angle_alpha 83.870063
_cell_angle_beta 34.206242
_cell_angle_gamma 105.341036
_cell_volume 568.509588
_symmetry_space_group_name_H-M "P -1"
_symmetry_group_IT_number 2
_symmetry_cell_setting 'triclinic'
loop_
_space_group_symop_operation_xyz
x,y,z
-x,-y,-z
loop_
_atom_site_type_symbol
_atom_site_label
_atom_site_fract_x
_atom_site_fract_y
_atom_site_fract_z
Si Si1 0.772490 0.018163 0.105875
Si Si2 0.753867 0.769067 0.316908
Si Si3 0.406503 0.529073 0.284287
Si Si4 0.555897 0.306655 0.950917
Si Si5 0.227977 0.028876 0.352743
Si Si6 0.060000 0.556732 0.626576
Si Si7 0.397683 0.990236 0.477785
O O1 0.807805 0.956324 0.184412
O O2 0.620045 0.749206 0.177971
O O3 0.604877 0.091025 0.246428
O O4 0.016142 0.210054 0.862625
O O5 0.500000 0.500000 0.500000
O O6 0.713139 0.870060 0.432663
O O7 0.420167 0.672513 0.175896
O O8 0.393021 0.294275 0.273602
O O9 0.170080 0.429758 0.516005
O O10 0.785817 0.394402 0.829793
O O11 0.500000 0.500000 0.000000
O O12 0.345491 0.052672 0.169167
O O13 0.154669 0.792877 0.477042
O O14 0.000000 0.000000 0.500000
O O15 0.187556 0.702564 0.618333
O O16 0.500000 0.000000 0.500000
#
# Coordination Sequence:
#
# PCOD9003959 Si02
#       7
#     2   2   2   2   2   2   2
#     4   9  21  41  57  87 123 158 201 258 306 365
#     4  10  21  37  63  90 115 160 206 252 316 364
#     4  10  22  41  61  87 131 160 205 259 305 370
#     4  10  21  38  60  90 123 163 201 254 309 365
#     4  11  23  38  60  92 124 164 209 247 307 376
#     4  11  22  42  63  89 126 166 203 260 315 360
#     4   9  21  41  63  88 126 160 204 260 307 371
#
# _framework density 24.625796000000001
#
# number of rings (size 3 to 8) (size 9 to 14) (size 15 to 20)
#    0.000    2.000    2.857    0.429    6.000    1.143 
#    0.000    7.143    0.000    0.000    0.000    0.000 
#    0.000    0.000    0.000    0.000    0.000    0.000 
#
# Total GULP energy -78249.439417 kJ/mol
# GULP energy per Si atom -5589.245673 kJ/mol
# Density = 2.456975 g / cm^3
# Si number density = 24.625796 Si / 1000 Ang^3
#
#
#
# Elastic Constant Matrix: (Units=GPa)
#
#
# Indices 1 2 3 4 5 6 
#
# 1 75.3912 8.9395 13.8765 0.8692 -11.0513 4.5306
# 2 8.9395 100.0189 50.3409 24.3606 2.0670 4.6293
# 3 13.8765 50.3409 189.2798 16.1640 -25.8863 4.0622
# 4 0.8692 24.3606 16.1640 35.1177 -3.2418 3.4350
# 5 -11.0513 2.0670 -25.8863 -3.2418 30.8144 -1.7469
# 6 4.5306 4.6293 4.0622 3.4350 -1.7469 43.4066
#
#
#
# Elastic Compliance Matrix: (Units=1/GPa)
#
#
# Indices 1 2 3 4 5 6 
#
# 1 0.014300 -0.001699 0.000041 0.001419 0.005357 -0.001212
# 2 -0.001699 0.014239 -0.003681 -0.008604 -0.005592 -0.000541
# 3 0.000041 -0.003681 0.007124 -0.000150 0.006230 -0.000016
# 4 0.001419 -0.008604 -0.000150 0.035075 0.004547 -0.001809
# 5 0.005357 -0.005592 0.006230 0.004547 0.040502 0.000724
# 6 -0.001212 -0.000541 -0.000016 -0.001809 0.000724 0.023396
#
#
# Mechanical properties :
#
#
# Convention : Reuss Voigt Hill
#
# Bulk Modulus (GPa) = 40.02318 56.77820 48.40069
# Shear Modulus (GPa) = 32.54317 41.30326 36.92322
#
# Velocity S-wave (km/s) = 3.63920 4.09985 3.87637
# Velocity P-wave (km/s) = 5.82633 6.74671 6.30334
#
# Compressibility (1/GPa) = 0.02498552
#
# Stress axis : x y z
#
# Youngs Moduli (GPa) = 69.93081 70.23026 140.36444
#
# Poissons Ratio (x) = 0.11932 -0.00576
# Poissons Ratio (y) = 0.11881 0.51666
# Poissons Ratio (z) = -0.00287 0.25851
#
# Static dielectric constant tensor:
#      x y z
#    x 2.000080 -0.040790 -0.026300 
#    y -0.040790 1.993820 0.042350 
#    z -0.026300 0.042350 1.995910 
# 
# From -- ./inp_files/187071.got.cif
#   From: 2010.05.17/outbox.cif.g08.bks.cpg/sg2_94_cif.got.tgz:187071.got - 2010.06.03 11:33:40.
