data_PCOD9003883
_publ_section_title
;
Structure prediction by ZEFSAII (Michael W. Deem and Ramdas Pophale) SiO2 
 PCOD9003883
Probable space group: P -1
;
_chemical_formula_sum "Si O2"
_cell_formula_units_Z 14
_cell_length_a 12.302485
_cell_length_b 5.192970
_cell_length_c 25.629356
_cell_angle_alpha 113.669753
_cell_angle_beta 147.137039
_cell_angle_gamma 89.912708
_cell_volume 600.047095
_symmetry_space_group_name_H-M "P -1"
_symmetry_group_IT_number 2
_symmetry_cell_setting 'triclinic'
loop_
_space_group_symop_operation_xyz
x,y,z
-x,-y,-z
loop_
_atom_site_type_symbol
_atom_site_label
_atom_site_fract_x
_atom_site_fract_y
_atom_site_fract_z
Si Si1 0.890510 0.512306 0.163420
Si Si2 0.219720 0.385949 0.977847
Si Si3 0.025161 0.350510 0.050763
Si Si4 0.773055 0.601397 0.445634
Si Si5 0.134631 0.472264 0.632200
Si Si6 0.632971 0.347340 0.151200
Si Si7 0.272192 0.470423 0.258555
O O1 0.835982 0.701863 0.113716
O O2 0.858076 0.569373 0.214644
O O3 0.167696 0.614212 0.267322
O O4 0.631211 0.065643 0.011040
O O5 0.189255 0.685989 0.002704
O O6 0.502014 0.528959 0.122327
O O7 0.974172 0.988519 0.874518
O O8 0.281461 0.607176 0.214560
O O9 0.000000 0.500000 0.000000
O O10 0.000000 0.000000 0.000000
O O11 0.678217 0.398093 0.333443
O O12 0.543811 0.550957 0.380836
O O13 0.908691 0.477288 0.521830
O O14 0.000912 0.046890 0.559102
O O15 0.259762 0.680988 0.754708
#
# Coordination Sequence:
#
# PCOD9003883 Si02
#       7
#     2   2   2   2   2   2   2
#     4   9  21  39  65  99 127 168 210 269 331 384
#     4  10  21  37  62  95 130 169 203 263 340 376
#     4  11  22  36  54  94 127 161 208 251 324 386
#     4  10  24  44  64  90 127 170 222 260 312 379
#     4  10  24  44  65  91 122 175 217 263 316 372
#     4  10  21  41  65  94 132 166 219 266 320 389
#     4  10  22  39  63  91 131 169 206 271 324 377
#
# _framework density 23.331500999999999
#
# number of rings (size 3 to 8) (size 9 to 14) (size 15 to 20)
#    0.000    2.000    1.429    0.429    8.000    0.000 
#    2.571    1.429    0.000    0.000    0.000    0.000 
#    0.000    0.000    0.000    0.000    0.000    0.000 
#
# Total GULP energy -78117.273750 kJ/mol
# GULP energy per Si atom -5579.805268 kJ/mol
# Density = 2.327840 g / cm^3
# Si number density = 23.331501 Si / 1000 Ang^3
#
#
#
# Elastic Constant Matrix: (Units=GPa)
#
#
# Indices 1 2 3 4 5 6 
#
# 1 91.1397 10.3784 45.5602 -23.5944 9.2387 16.3090
# 2 10.3784 101.2103 19.6794 -31.4678 -8.7761 5.8904
# 3 45.5602 19.6794 52.9817 -26.6401 0.7401 0.5738
# 4 -23.5944 -31.4678 -26.6401 35.2109 1.9673 -0.2091
# 5 9.2387 -8.7761 0.7401 1.9673 24.1028 -8.9819
# 6 16.3090 5.8904 0.5738 -0.2091 -8.9819 30.0795
#
#
#
# Elastic Compliance Matrix: (Units=1/GPa)
#
#
# Indices 1 2 3 4 5 6 
#
# 1 0.029064 0.002924 -0.022694 0.005784 -0.017734 -0.021153
# 2 0.002924 0.014523 -0.000701 0.014297 0.001590 -0.003842
# 3 -0.022694 -0.000701 0.048608 0.020426 0.010833 0.014891
# 4 0.005784 0.014297 0.020426 0.060764 -0.005399 -0.007515
# 5 -0.017734 0.001590 0.010833 -0.005399 0.058904 0.026649
# 6 -0.021153 -0.003842 0.014891 -0.007515 0.026649 0.053088
#
#
# Mechanical properties :
#
#
# Convention : Reuss Voigt Hill
#
# Bulk Modulus (GPa) = 19.51078 44.06308 31.78693
# Shear Modulus (GPa) = 15.48098 29.19289 22.33693
#
# Velocity S-wave (km/s) = 2.57869 3.54110 3.09750
# Velocity P-wave (km/s) = 4.15292 5.97041 5.14260
#
# Compressibility (1/GPa) = 0.05125370
#
# Stress axis : x y z
#
# Youngs Moduli (GPa) = 34.40680 68.85399 20.57293
#
# Poissons Ratio (x) = -0.20133 0.46688
# Poissons Ratio (y) = -0.10061 0.01442
# Poissons Ratio (z) = 0.78082 0.04826
#
# Static dielectric constant tensor:
#      x y z
#    x 1.989320 0.007100 -0.056810 
#    y 0.007100 1.991270 0.021220 
#    z -0.056810 0.021220 1.929320 
# 
# From -- ./inp_files/609226.got.cif
#   From: 2010.05.17/outbox.cif.g08.bks.cpg/sg2_305_cif.got.tgz:609226.got - 2010.06.03 11:33:40.
