data_PCOD9003334
_publ_section_title
;
Structure prediction by ZEFSAII (Michael W. Deem and Ramdas Pophale) SiO2 
 PCOD9003334
Probable space group: P -1
;
_chemical_formula_sum "Si O2"
_cell_formula_units_Z 16
_cell_length_a 4.871313
_cell_length_b 4.630532
_cell_length_c 26.877155
_cell_angle_alpha 66.070304
_cell_angle_beta 92.805123
_cell_angle_gamma 95.333435
_cell_volume 551.708713
_symmetry_space_group_name_H-M "P -1"
_symmetry_group_IT_number 2
_symmetry_cell_setting 'triclinic'
loop_
_space_group_symop_operation_xyz
x,y,z
-x,-y,-z
loop_
_atom_site_type_symbol
_atom_site_label
_atom_site_fract_x
_atom_site_fract_y
_atom_site_fract_z
Si Si1 0.863528 0.487425 0.435308
Si Si2 0.247416 0.974904 0.952446
Si Si3 0.650589 0.424268 0.244654
Si Si4 0.128901 0.510711 0.066801
Si Si5 0.771828 0.185301 0.751160
Si Si6 0.466663 0.668120 0.150078
Si Si7 0.231503 0.983015 0.449513
Si Si8 0.563253 0.309441 0.348560
O O1 0.696954 0.247689 0.488939
O O2 0.737514 0.492642 0.379906
O O3 0.939193 0.815806 0.439453
O O4 0.151288 0.324170 0.442814
O O5 0.962076 0.808362 0.939504
O O6 0.435099 0.025501 0.902283
O O7 0.309715 0.748201 0.014669
O O8 0.152231 0.314078 0.943304
O O9 0.720718 0.469972 0.182948
O O10 0.727061 0.214951 0.307920
O O11 0.903604 0.724336 0.244318
O O12 0.359996 0.151758 0.246053
O O13 0.262617 0.483495 0.123235
O O14 0.611303 0.262140 0.797416
O O15 0.633236 0.451728 0.697643
O O16 0.404366 0.031434 0.397683
#
# Coordination Sequence:
#
# PCOD9003334 Si02
#       8
#     2   2   2   2   2   2   2   2
#     4  10  21  37  59  89 124 162 206 254 310 373
#     4  10  21  37  59  89 124 162 206 254 310 373
#     4   8  18  34  60  91 122 163 211 261 312 374
#     4  10  21  37  59  89 124 162 206 254 310 373
#     4   8  18  34  60  91 122 163 211 261 312 374
#     4   9  19  34  62  84 127 159 210 252 318 365
#     4  10  21  37  59  89 124 162 206 254 310 373
#     4   9  19  34  62  84 127 159 210 252 318 365
#
# _framework density 29.000806000000001
#
# number of rings (size 3 to 8) (size 9 to 14) (size 15 to 20)
#    1.500    1.000    0.000    2.250    0.000    2.000 
#    0.000   12.500    0.000   15.000    0.000    0.000 
#    0.000    0.000    0.000    0.000    0.000    0.000 
#
# Total GULP energy -89125.383338 kJ/mol
# GULP energy per Si atom -5570.336459 kJ/mol
# Density = 2.893480 g / cm^3
# Si number density = 29.000806 Si / 1000 Ang^3
#
#
#
# Elastic Constant Matrix: (Units=GPa)
#
#
# Indices 1 2 3 4 5 6 
#
# 1 79.3210 21.2555 63.1531 -0.4169 3.0368 14.3693
# 2 21.2555 115.3182 37.6067 -2.3336 -2.2084 -1.5290
# 3 63.1531 37.6067 268.6941 50.5065 16.0735 7.3501
# 4 -0.4169 -2.3336 50.5065 52.6045 16.1363 6.7464
# 5 3.0368 -2.2084 16.0735 16.1363 48.0268 4.3857
# 6 14.3693 -1.5290 7.3501 6.7464 4.3857 24.0589
#
#
#
# Elastic Compliance Matrix: (Units=1/GPa)
#
#
# Indices 1 2 3 4 5 6 
#
# 1 0.019528 -0.001926 -0.005238 0.006875 -0.000787 -0.011970
# 2 -0.001926 0.009460 -0.001164 0.001183 0.000393 0.001704
# 3 -0.005238 -0.001164 0.006252 -0.006505 0.000102 0.002950
# 4 0.006875 0.001183 -0.006505 0.028645 -0.007024 -0.008796
# 5 -0.000787 0.000393 0.000102 -0.007024 0.023383 -0.001829
# 6 -0.011970 0.001704 0.002950 -0.008796 -0.001829 0.050720
#
#
# Mechanical properties :
#
#
# Convention : Reuss Voigt Hill
#
# Bulk Modulus (GPa) = 53.80846 78.59601 66.20223
# Shear Modulus (GPa) = 31.08708 47.69259 39.38983
#
# Velocity S-wave (km/s) = 3.27760 4.05968 3.68942
# Velocity P-wave (km/s) = 5.73742 7.00962 6.40518
#
# Compressibility (1/GPa) = 0.01858444
#
# Stress axis : x y z
#
# Youngs Moduli (GPa) = 51.20825 105.70552 159.95625
#
# Poissons Ratio (x) = 0.20358 0.83786
# Poissons Ratio (y) = 0.09862 0.18617
# Poissons Ratio (z) = 0.26823 0.12303
#
# Static dielectric constant tensor:
#      x y z
#    x 2.619270 -0.099950 -0.123500 
#    y -0.099950 2.311630 0.005340 
#    z -0.123500 0.005340 2.336180 
# 
# From -- ./inp_files/13086.got.cif
#   From: 2010.05.17/outbox.cif.g08.bks.cpg/sg2_7_cif.got.tgz:13086.got - 2010.06.03 11:33:40.
