data_PCOD9003871
_publ_section_title
;
Structure prediction by ZEFSAII (Michael W. Deem and Ramdas Pophale) SiO2 
 PCOD9003871
Probable space group: P -1
;
_chemical_formula_sum "Si O2"
_cell_formula_units_Z 16
_cell_length_a 16.965609
_cell_length_b 12.693985
_cell_length_c 8.314087
_cell_angle_alpha 93.616661
_cell_angle_beta 43.059082
_cell_angle_gamma 128.399063
_cell_volume 654.509302
_symmetry_space_group_name_H-M "P -1"
_symmetry_group_IT_number 2
_symmetry_cell_setting 'triclinic'
loop_
_space_group_symop_operation_xyz
x,y,z
-x,-y,-z
loop_
_atom_site_type_symbol
_atom_site_label
_atom_site_fract_x
_atom_site_fract_y
_atom_site_fract_z
Si Si1 0.890334 0.105971 0.838048
Si Si2 0.173961 0.364996 0.122541
Si Si3 0.602836 0.208314 0.455898
Si Si4 0.168220 0.492746 0.612578
Si Si5 0.920388 0.378326 0.448837
Si Si6 0.011446 0.037927 0.173077
Si Si7 0.492748 0.927398 0.770620
Si Si8 0.541805 0.743328 0.818241
O O1 0.031367 0.225895 0.478911
O O2 0.005413 0.270996 0.812657
O O3 0.894555 0.989379 0.876812
O O4 0.649393 0.960162 0.159178
O O5 0.053146 0.374399 0.235364
O O6 0.410823 0.578851 0.857986
O O7 0.150118 0.248258 0.028054
O O8 0.735152 0.406870 0.349627
O O9 0.622114 0.195705 0.238478
O O10 0.641427 0.136229 0.505586
O O11 0.068708 0.524692 0.695142
O O12 0.368136 0.624605 0.206855
O O13 0.000000 0.500000 0.500000
O O14 0.676966 0.166006 0.850661
O O15 0.759348 0.861649 0.573161
O O16 0.000000 0.000000 0.000000
O O17 0.597822 0.901820 0.678078
#
# Coordination Sequence:
#
# PCOD9003871 Si02
#       8
#     2   2   2   2   2   2   2   2
#     4  11  23  45  64  91 133 166 217 262 311 374
#     4  11  23  42  71  91 124 175 207 266 320 366
#     4  11  22  38  61  98 132 170 202 257 329 372
#     4  10  23  38  70  99 122 171 210 264 313 387
#     4  11  18  42  66  98 132 160 215 257 317 385
#     4  12  28  44  64  95 127 170 220 263 311 378
#     4  10  21  37  62  94 136 164 201 264 319 383
#     4  10  23  42  66  94 121 168 218 257 314 380
#
# _framework density 24.445792999999998
#
# number of rings (size 3 to 8) (size 9 to 14) (size 15 to 20)
#    0.000    1.250    5.000    1.875    1.750    5.500 
#    0.000    3.125    0.000    0.000    0.000    0.000 
#    0.000    0.000    0.000    0.000    0.000    0.000 
#
# Total GULP energy -89648.922274 kJ/mol
# GULP energy per Si atom -5603.057642 kJ/mol
# Density = 2.439015 g / cm^3
# Si number density = 24.445793 Si / 1000 Ang^3
#
#
#
# Elastic Constant Matrix: (Units=GPa)
#
#
# Indices 1 2 3 4 5 6 
#
# 1 36.2432 36.0430 12.1350 2.3646 2.8249 -19.1345
# 2 36.0430 185.3172 7.0554 -8.9509 -9.3093 2.3278
# 3 12.1350 7.0554 31.9573 0.4608 9.2922 -1.8459
# 4 2.3646 -8.9509 0.4608 20.4888 2.6645 -8.5527
# 5 2.8249 -9.3093 9.2922 2.6645 33.2256 -5.8436
# 6 -19.1345 2.3278 -1.8459 -8.5527 -5.8436 47.3629
#
#
#
# Elastic Compliance Matrix: (Units=1/GPa)
#
#
# Indices 1 2 3 4 5 6 
#
# 1 0.055686 -0.010429 -0.017942 -0.001487 0.001387 0.022213
# 2 -0.010429 0.007630 0.001518 0.002680 0.001711 -0.003834
# 3 -0.017942 0.001518 0.040448 0.000280 -0.010616 -0.007006
# 4 -0.001487 0.002680 0.000280 0.054074 -0.001990 0.008798
# 5 0.001387 0.001711 -0.010616 -0.001990 0.034279 0.003933
# 6 0.022213 -0.003834 -0.007006 0.008798 0.003933 0.032077
#
#
# Mechanical properties :
#
#
# Convention : Reuss Voigt Hill
#
# Bulk Modulus (GPa) = 19.97657 40.44272 30.20964
# Shear Modulus (GPa) = 16.97300 33.43442 25.20371
#
# Velocity S-wave (km/s) = 2.63784 3.70225 3.21441
# Velocity P-wave (km/s) = 4.17937 5.90384 5.11480
#
# Compressibility (1/GPa) = 0.05005865
#
# Stress axis : x y z
#
# Youngs Moduli (GPa) = 17.95784 131.05801 24.72324
#
# Poissons Ratio (x) = 1.36676 0.44358
# Poissons Ratio (y) = 0.18728 -0.03753
# Poissons Ratio (z) = 0.32220 -0.19893
#
# Static dielectric constant tensor:
#      x y z
#    x 1.912650 0.033410 -0.026340 
#    y 0.033410 1.961730 -0.035010 
#    z -0.026340 -0.035010 2.033600 
# 
# From -- ./inp_files/333339.got.cif
#   From: 2010.05.17/outbox.cif.g08.bks.cpg/sg2_167_cif.got.tgz:333339.got - 2010.06.03 11:33:40.
