data_PCOD9003528
_publ_section_title
;
Structure prediction by ZEFSAII (Michael W. Deem and Ramdas Pophale) SiO2 
 PCOD9003528
Probable space group: P -1
;
_chemical_formula_sum "Si O2"
_cell_formula_units_Z 14
_cell_length_a 15.246314
_cell_length_b 27.987579
_cell_length_c 27.458036
_cell_angle_alpha 10.658063
_cell_angle_beta 159.837287
_cell_angle_gamma 161.763879
_cell_volume 675.230868
_symmetry_space_group_name_H-M "P -1"
_symmetry_group_IT_number 2
_symmetry_cell_setting 'triclinic'
loop_
_space_group_symop_operation_xyz
x,y,z
-x,-y,-z
loop_
_atom_site_type_symbol
_atom_site_label
_atom_site_fract_x
_atom_site_fract_y
_atom_site_fract_z
Si Si1 0.832608 0.674247 0.757872
Si Si2 0.908208 0.048789 0.689284
Si Si3 0.576947 0.531420 0.866083
Si Si4 0.224129 0.892453 0.329974
Si Si5 0.477953 0.742122 0.212731
Si Si6 0.839636 0.677678 0.261498
Si Si7 0.863484 0.532691 0.113653
O O1 0.823146 0.666211 0.819965
O O2 0.498167 0.505481 0.737886
O O3 0.000000 0.000000 0.500000
O O4 0.000000 0.500000 0.000000
O O5 0.769551 0.057996 0.658665
O O6 0.843995 0.257996 0.409247
O O7 0.235426 0.153819 0.771376
O O8 0.848067 0.759297 0.918055
O O9 0.397685 0.712244 0.589743
O O10 0.661064 0.516961 0.980083
O O11 0.386125 0.206161 0.077602
O O12 0.923637 0.729581 0.310570
O O13 0.500000 0.500000 0.500000
O O14 0.161228 0.628302 0.144060
O O15 0.500000 0.000000 0.000000
O O16 0.000000 0.500000 0.500000
O O17 0.000000 0.000000 0.000000
#
# Coordination Sequence:
#
# PCOD9003528 Si02
#       7
#     2   2   2   2   2   2   2
#     4  12  26  46  72 105 135 171 232 299 344 412
#     4  10  21  37  60  93 128 169 227 267 316 402
#     4  12  25  42  65  95 135 177 221 272 352 404
#     4  12  24  41  67  97 128 179 229 269 328 425
#     4   8  16  33  54  77 115 164 209 255 314 372
#     4  12  23  47  74  96 134 185 223 278 360 410
#     4  10  21  38  60  89 133 177 205 276 336 386
#
# _framework density 20.733650000000001
#
# number of rings (size 3 to 8) (size 9 to 14) (size 15 to 20)
#    0.000    1.143    2.857    3.429    0.000    4.571 
#    0.000    7.143    0.000    0.000    0.000    0.000 
#    0.000    0.000    0.000    0.000    0.000    0.000 
#
# Total GULP energy -78027.720433 kJ/mol
# GULP energy per Si atom -5573.408602 kJ/mol
# Density = 2.068646 g / cm^3
# Si number density = 20.733650 Si / 1000 Ang^3
#
#
#
# Elastic Constant Matrix: (Units=GPa)
#
#
# Indices 1 2 3 4 5 6 
#
# 1 143.0090 31.0260 47.1636 -14.6270 22.0107 3.8201
# 2 31.0260 120.9510 55.2548 6.8169 -16.7338 -5.6231
# 3 47.1636 55.2548 190.2028 -10.7106 15.4719 12.5228
# 4 -14.6270 6.8169 -10.7106 38.2046 -9.5847 -7.6116
# 5 22.0107 -16.7338 15.4719 -9.5847 51.7389 10.3947
# 6 3.8201 -5.6231 12.5228 -7.6116 10.3947 36.2578
#
#
#
# Elastic Compliance Matrix: (Units=1/GPa)
#
#
# Indices 1 2 3 4 5 6 
#
# 1 0.008697 -0.002395 -0.001049 0.002650 -0.003816 0.000725
# 2 -0.002395 0.011265 -0.003296 -0.002363 0.004965 0.001218
# 3 -0.001049 -0.003296 0.006836 0.001205 -0.002055 -0.001920
# 4 0.002650 -0.002363 0.001205 0.029414 0.002302 0.004453
# 5 -0.003816 0.004965 -0.002055 0.002302 0.024536 -0.004669
# 6 0.000725 0.001218 -0.001920 0.004453 -0.004669 0.030629
#
#
# Mechanical properties :
#
#
# Convention : Reuss Voigt Hill
#
# Bulk Modulus (GPa) = 75.08335 80.11685 77.60010
# Shear Modulus (GPa) = 38.67087 46.62148 42.64618
#
# Velocity S-wave (km/s) = 4.32340 4.74707 4.54018
# Velocity P-wave (km/s) = 7.82395 8.29284 8.06180
#
# Compressibility (1/GPa) = 0.01331853
#
# Stress axis : x y z
#
# Youngs Moduli (GPa) = 114.98048 88.77381 146.27563
#
# Poissons Ratio (x) = 0.21265 0.15341
# Poissons Ratio (y) = 0.27543 0.48206
# Poissons Ratio (z) = 0.12059 0.29256
#
# Static dielectric constant tensor:
#      x y z
#    x 1.727360 0.053060 -0.023460 
#    y 0.053060 1.873080 -0.016970 
#    z -0.023460 -0.016970 1.708540 
# 
# From -- ./inp_files/619983.got.cif
#   From: 2010.05.17/outbox.cif.g08.bks.cpg/sg2_310_cif.got.tgz:619983.got - 2010.06.03 11:33:40.
