data_PCOD9003816
_publ_section_title
;
Structure prediction by ZEFSAII (Michael W. Deem and Ramdas Pophale) SiO2 
 PCOD9003816
Probable space group: P -1
;
_chemical_formula_sum "Si O2"
_cell_formula_units_Z 16
_cell_length_a 10.751425
_cell_length_b 13.407275
_cell_length_c 13.035976
_cell_angle_alpha 44.473439
_cell_angle_beta 32.615683
_cell_angle_gamma 57.889645
_cell_volume 697.451991
_symmetry_space_group_name_H-M "P -1"
_symmetry_group_IT_number 2
_symmetry_cell_setting 'triclinic'
loop_
_space_group_symop_operation_xyz
x,y,z
-x,-y,-z
loop_
_atom_site_type_symbol
_atom_site_label
_atom_site_fract_x
_atom_site_fract_y
_atom_site_fract_z
Si Si1 0.570869 0.065238 0.191508
Si Si2 0.423275 0.788197 0.626714
Si Si3 0.970407 0.224365 0.924394
Si Si4 0.361207 0.651615 0.157580
Si Si5 0.241512 0.326100 0.970177
Si Si6 0.750318 0.375937 0.338158
Si Si7 0.850471 0.661183 0.480691
Si Si8 0.640223 0.852306 0.141446
O O1 0.431781 0.945775 0.452822
O O2 0.565695 0.995942 0.132062
O O3 0.828852 0.104760 0.033756
O O4 0.511901 0.223880 0.099256
O O5 0.357907 0.676883 0.659785
O O6 0.673226 0.773790 0.513511
O O7 0.222248 0.751431 0.877441
O O8 0.075887 0.353510 0.679927
O O9 0.181908 0.177555 0.871585
O O10 0.531121 0.644960 0.138805
O O11 0.295689 0.492516 0.271268
O O12 0.105982 0.692826 0.332752
O O13 0.245006 0.452817 0.788877
O O14 0.231219 0.171320 0.035780
O O15 0.009966 0.340032 0.184477
O O16 0.585957 0.276033 0.604980
#
# Coordination Sequence:
#
# PCOD9003816 Si02
#       8
#     2   2   2   2   2   2   2   2
#     4  10  23  39  61  91 127 160 200 255 301 359
#     4  11  20  39  66  95 116 156 212 252 300 356
#     4  11  20  37  66  94 118 157 209 256 300 348
#     4  10  22  41  62  88 130 166 188 250 317 357
#     4  11  21  39  61  87 122 162 200 248 304 363
#     4  10  21  37  62  92 117 154 208 260 290 350
#     4  10  21  41  65  90 127 154 202 259 297 361
#     4  11  21  36  61  89 118 159 209 250 296 353
#
# _framework density 22.940646999999998
#
# number of rings (size 3 to 8) (size 9 to 14) (size 15 to 20)
#    0.000    1.500    5.000    1.125    1.750    0.500 
#    0.000   10.625    0.000    0.000    0.000    0.000 
#    0.000    0.000    0.000    0.000    0.000    0.000 
#
# Total GULP energy -89255.540638 kJ/mol
# GULP energy per Si atom -5578.471290 kJ/mol
# Density = 2.288843 g / cm^3
# Si number density = 22.940647 Si / 1000 Ang^3
#
#
#
# Elastic Constant Matrix: (Units=GPa)
#
#
# Indices 1 2 3 4 5 6 
#
# 1 66.2249 17.1445 7.0665 7.1639 -20.0574 -14.7790
# 2 17.1445 57.3472 38.4206 2.0850 14.4173 -2.3560
# 3 7.0665 38.4206 74.6473 0.6428 0.7514 -8.8537
# 4 7.1639 2.0850 0.6428 31.8550 -9.2746 -2.2702
# 5 -20.0574 14.4173 0.7514 -9.2746 30.6373 1.3114
# 6 -14.7790 -2.3560 -8.8537 -2.2702 1.3114 27.9313
#
#
#
# Elastic Compliance Matrix: (Units=1/GPa)
#
#
# Indices 1 2 3 4 5 6 
#
# 1 0.036332 -0.028629 0.013200 0.005865 0.037867 0.019692
# 2 -0.028629 0.056157 -0.027744 -0.011718 -0.047268 -0.017939
# 3 0.013200 -0.027744 0.027677 0.005662 0.022183 0.012836
# 4 0.005865 -0.011718 0.005662 0.037023 0.020167 0.005972
# 5 0.037867 -0.047268 0.022183 0.020167 0.084346 0.020760
# 6 0.019692 -0.017939 0.012836 0.005972 0.020760 0.048288
#
#
# Mechanical properties :
#
#
# Convention : Reuss Voigt Hill
#
# Bulk Modulus (GPa) = 29.56996 35.94252 32.75624
# Shear Modulus (GPa) = 12.90516 27.12392 20.01454
#
# Velocity S-wave (km/s) = 2.37438 3.44226 2.95693
# Velocity P-wave (km/s) = 4.52047 5.61253 5.09584
#
# Compressibility (1/GPa) = 0.03381810
#
# Stress axis : x y z
#
# Youngs Moduli (GPa) = 27.52411 17.80734 36.13112
#
# Poissons Ratio (x) = 0.50981 -0.47693
# Poissons Ratio (y) = 0.78799 1.00243
# Poissons Ratio (z) = -0.36331 0.49405
#
# Static dielectric constant tensor:
#      x y z
#    x 1.839830 0.012110 0.015210 
#    y 0.012110 1.915680 -0.019980 
#    z 0.015210 -0.019980 1.900900 
# 
# From -- ./inp_files/521437.got.cif
#   From: 2010.05.17/outbox.cif.g08.bks.cpg/sg2_261_cif.got.tgz:521437.got - 2010.06.03 11:33:40.
