data_PCOD9003026
_publ_section_title
;
Structure prediction by ZEFSAII (Michael W. Deem and Ramdas Pophale) SiO2 
 PCOD9003026
Probable space group: P -1
;
_chemical_formula_sum "Si O2"
_cell_formula_units_Z 16
_cell_length_a 6.545984
_cell_length_b 21.053652
_cell_length_c 10.071946
_cell_angle_alpha 43.283060
_cell_angle_beta 131.820070
_cell_angle_gamma 124.030692
_cell_volume 701.704375
_symmetry_space_group_name_H-M "P -1"
_symmetry_group_IT_number 2
_symmetry_cell_setting 'triclinic'
loop_
_space_group_symop_operation_xyz
x,y,z
-x,-y,-z
loop_
_atom_site_type_symbol
_atom_site_label
_atom_site_fract_x
_atom_site_fract_y
_atom_site_fract_z
Si Si1 0.314186 0.080998 0.259615
Si Si2 0.511072 0.104891 0.019737
Si Si3 0.075960 0.246723 0.012239
Si Si4 0.222136 0.059397 0.698223
Si Si5 0.800698 0.747569 0.663905
Si Si6 0.462197 0.500852 0.141504
Si Si7 0.817166 0.354189 0.509307
Si Si8 0.927300 0.364616 0.232173
O O1 0.500000 0.000000 0.500000
O O2 0.365526 0.113846 0.081372
O O3 0.303287 0.177603 0.187090
O O4 0.013849 0.021681 0.237280
O O5 0.337117 0.111538 0.801613
O O6 0.782829 0.180158 0.010014
O O7 0.568195 0.996916 0.201366
O O8 0.013262 0.310819 0.763456
O O9 0.142163 0.300059 0.098964
O O10 0.140600 0.141698 0.449404
O O11 0.481051 0.712990 0.538301
O O12 0.018625 0.729607 0.672550
O O13 0.721888 0.451096 0.374274
O O14 0.189088 0.432315 0.178781
O O15 0.500000 0.500000 0.000000
O O16 0.362912 0.599619 0.984841
O O17 0.942678 0.364646 0.398690
#
# Coordination Sequence:
#
# PCOD9003026 Si02
#       8
#     2   2   2   2   2   2   2   2
#     4  11  23  37  55  82 115 159 203 246 299 351
#     4  10  21  39  57  78 114 157 201 244 299 347
#     4  11  24  39  58  87 120 154 200 247 295 348
#     4  10  21  37  57  82 110 156 200 250 291 350
#     4  11  22  37  58  86 120 152 195 246 296 343
#     4   8  16  36  63  90 118 152 191 233 286 350
#     4  10  21  38  60  87 119 153 192 241 289 350
#     4   9  19  35  63  90 116 156 192 230 294 352
#
# _framework density 22.801625000000001
#
# number of rings (size 3 to 8) (size 9 to 14) (size 15 to 20)
#    0.000    2.000    1.250    1.875    1.750    5.000 
#    0.000    0.625    0.000   25.500    0.000    0.000 
#    0.000    0.000    0.000    0.000    0.000    0.000 
#
# Total GULP energy -89223.352615 kJ/mol
# GULP energy per Si atom -5576.459538 kJ/mol
# Density = 2.274973 g / cm^3
# Si number density = 22.801625 Si / 1000 Ang^3
#
#
#
# Elastic Constant Matrix: (Units=GPa)
#
#
# Indices 1 2 3 4 5 6 
#
# 1 123.5717 24.8466 34.1724 -4.8700 -9.8981 -26.4435
# 2 24.8466 34.9428 27.4878 0.3957 2.7091 -9.0163
# 3 34.1724 27.4878 96.8063 -14.4443 11.4157 -20.8510
# 4 -4.8700 0.3957 -14.4443 30.3569 -0.1152 0.5971
# 5 -9.8981 2.7091 11.4157 -0.1152 29.8136 -4.1552
# 6 -26.4435 -9.0163 -20.8510 0.5971 -4.1552 39.9039
#
#
#
# Elastic Compliance Matrix: (Units=1/GPa)
#
#
# Indices 1 2 3 4 5 6 
#
# 1 0.011516 -0.005794 -0.001648 0.001042 0.005829 0.006053
# 2 -0.005794 0.041105 -0.010396 -0.006417 -0.001712 -0.000067
# 3 -0.001648 -0.010396 0.016618 0.007668 -0.005298 0.004576
# 4 0.001042 -0.006417 0.007668 0.036785 -0.001511 0.002540
# 5 0.005829 -0.001712 -0.005298 -0.001511 0.038313 0.004719
# 6 0.006053 -0.000067 0.004576 0.002540 0.004719 0.031900
#
#
# Mechanical properties :
#
#
# Convention : Reuss Voigt Hill
#
# Bulk Modulus (GPa) = 29.79557 47.59273 38.69415
# Shear Modulus (GPa) = 22.41119 31.26915 26.84017
#
# Velocity S-wave (km/s) = 3.13849 3.70720 3.43464
# Velocity P-wave (km/s) = 5.12144 6.26437 5.72151
#
# Compressibility (1/GPa) = 0.03356203
#
# Stress axis : x y z
#
# Youngs Moduli (GPa) = 86.83195 24.32812 60.17501
#
# Poissons Ratio (x) = 0.14097 0.09918
# Poissons Ratio (y) = 0.50313 0.62559
# Poissons Ratio (z) = 0.14312 0.25292
#
# Static dielectric constant tensor:
#      x y z
#    x 1.851840 0.000720 0.026820 
#    y 0.000720 1.916200 -0.068690 
#    z 0.026820 -0.068690 1.955000 
# 
# From -- ./inp_files/44978.got.cif
#   From: 2010.05.17/outbox.cif.g08.bks.cpg/sg2_23_cif.got.tgz:44978.got - 2010.06.03 11:33:40.
