data_PCOD9003637
_publ_section_title
;
Structure prediction by ZEFSAII (Michael W. Deem and Ramdas Pophale) SiO2 
 PCOD9003637
Probable space group: P -1
;
_chemical_formula_sum "Si O2"
_cell_formula_units_Z 16
_cell_length_a 6.916282
_cell_length_b 30.402883
_cell_length_c 10.265524
_cell_angle_alpha 147.247226
_cell_angle_beta 43.716641
_cell_angle_gamma 120.282847
_cell_volume 775.482819
_symmetry_space_group_name_H-M "P -1"
_symmetry_group_IT_number 2
_symmetry_cell_setting 'triclinic'
loop_
_space_group_symop_operation_xyz
x,y,z
-x,-y,-z
loop_
_atom_site_type_symbol
_atom_site_label
_atom_site_fract_x
_atom_site_fract_y
_atom_site_fract_z
Si Si1 0.467478 0.644570 0.236162
Si Si2 0.745947 0.356178 0.381912
Si Si3 0.743617 0.086089 0.832536
Si Si4 0.954074 0.498746 0.331153
Si Si5 0.006846 0.175699 0.704669
Si Si6 0.920793 0.911386 0.827631
Si Si7 0.639309 0.176490 0.386596
Si Si8 0.637962 0.500534 0.228019
O O1 0.449499 0.723251 0.347733
O O2 0.328847 0.675606 0.520732
O O3 0.788639 0.583633 0.959720
O O4 0.300206 0.582689 0.097626
O O5 0.942405 0.419579 0.475343
O O6 0.887811 0.277070 0.024939
O O7 0.825170 0.137395 0.800018
O O8 0.422725 0.073388 0.941826
O O9 0.732546 0.133120 0.093476
O O10 0.000000 0.000000 0.500000
O O11 0.873317 0.499509 0.220654
O O12 0.661617 0.499196 0.550548
O O13 0.542678 0.584425 0.396407
O O14 0.997773 0.138969 0.473489
O O15 0.349694 0.152575 0.515450
O O16 0.107366 0.855873 0.713518
O O17 0.000000 0.000000 0.000000
#
# Coordination Sequence:
#
# PCOD9003637 Si02
#       8
#     2   2   2   2   2   2   2   2
#     4  11  22  39  61  89 131 172 221 272 323 384
#     4  11  22  39  60  91 128 174 222 269 325 381
#     4  11  24  45  72  99 132 171 215 271 339 405
#     4  10  21  38  61  88 125 173 222 270 324 380
#     4  11  24  44  68  98 136 175 220 275 330 399
#     4  11  26  46  71 104 133 171 220 273 335 407
#     4  11  24  44  68  99 135 176 219 276 334 393
#     4  10  21  37  61  90 125 174 220 273 321 379
#
# _framework density 20.63231
#
# number of rings (size 3 to 8) (size 9 to 14) (size 15 to 20)
#    0.000    1.250    1.250    6.000    0.000   12.000 
#    2.250    0.000    0.000    0.000    0.000    0.000 
#    0.000    0.000    0.000    0.000    0.000    0.000 
#
# Total GULP energy -89490.656014 kJ/mol
# GULP energy per Si atom -5593.166001 kJ/mol
# Density = 2.058535 g / cm^3
# Si number density = 20.632310 Si / 1000 Ang^3
#
#
#
# Elastic Constant Matrix: (Units=GPa)
#
#
# Indices 1 2 3 4 5 6 
#
# 1 174.5971 72.0985 72.5520 9.7359 -3.7652 -9.7733
# 2 72.0985 127.6851 62.2769 0.7241 -15.3891 0.0902
# 3 72.5520 62.2769 131.5160 7.6739 1.5457 16.0904
# 4 9.7359 0.7241 7.6739 43.5630 0.3514 -3.9263
# 5 -3.7652 -15.3891 1.5457 0.3514 25.2712 -3.4438
# 6 -9.7733 0.0902 16.0904 -3.9263 -3.4438 25.1120
#
#
#
# Elastic Compliance Matrix: (Units=1/GPa)
#
#
# Indices 1 2 3 4 5 6 
#
# 1 0.009199 -0.002941 -0.004440 -0.000651 0.000738 0.006435
# 2 -0.002941 0.012980 -0.005140 0.001594 0.008233 0.003480
# 3 -0.004440 -0.005140 0.014176 -0.002454 -0.006265 -0.012036
# 4 -0.000651 0.001594 -0.002454 0.023969 0.001407 0.005254
# 5 0.000738 0.008233 -0.006265 0.001407 0.046539 0.010874
# 6 0.006435 0.003480 -0.012036 0.005254 0.010874 0.052338
#
#
# Mechanical properties :
#
#
# Convention : Reuss Voigt Hill
#
# Bulk Modulus (GPa) = 88.38647 94.18366 91.28506
# Shear Modulus (GPa) = 26.59365 33.91396 30.25381
#
# Velocity S-wave (km/s) = 3.59407 4.05869 3.83343
# Velocity P-wave (km/s) = 7.75596 8.22871 7.99583
#
# Compressibility (1/GPa) = 0.01131395
#
# Stress axis : x y z
#
# Youngs Moduli (GPa) = 108.70215 77.04284 70.53979
#
# Poissons Ratio (x) = 0.22656 0.31323
# Poissons Ratio (y) = 0.31966 0.36255
# Poissons Ratio (z) = 0.48269 0.39597
#
# Static dielectric constant tensor:
#      x y z
#    x 1.708610 0.002990 0.006660 
#    y 0.002990 1.758990 -0.029000 
#    z 0.006660 -0.029000 1.739510 
# 
# From -- ./inp_files/143394.got.cif
#   From: 2010.05.17/outbox.cif.g08.bks.cpg/sg2_72_cif.got.tgz:143394.got - 2010.06.03 11:33:40.
