data_PCOD9003279
_publ_section_title
;
Structure prediction by ZEFSAII (Michael W. Deem and Ramdas Pophale) SiO2 
 PCOD9003279
Probable space group: P -1
;
_chemical_formula_sum "Si O2"
_cell_formula_units_Z 16
_cell_length_a 11.875138
_cell_length_b 7.625262
_cell_length_c 17.606688
_cell_angle_alpha 41.748966
_cell_angle_beta 141.353309
_cell_angle_gamma 129.672371
_cell_volume 657.008250
_symmetry_space_group_name_H-M "P -1"
_symmetry_group_IT_number 2
_symmetry_cell_setting 'triclinic'
loop_
_space_group_symop_operation_xyz
x,y,z
-x,-y,-z
loop_
_atom_site_type_symbol
_atom_site_label
_atom_site_fract_x
_atom_site_fract_y
_atom_site_fract_z
Si Si1 0.887255 0.817843 0.061969
Si Si2 0.864182 0.514489 0.303961
Si Si3 0.157989 0.093553 0.472509
Si Si4 0.173155 0.047254 0.747587
Si Si5 0.951378 0.204350 0.095195
Si Si6 0.567150 0.761252 0.308208
Si Si7 0.478231 0.341443 0.118107
Si Si8 0.343712 0.180076 0.381514
O O1 0.929969 0.629911 0.217809
O O2 0.732809 0.662705 0.977870
O O3 0.841565 0.049591 0.019094
O O4 0.000000 0.000000 0.000000
O O5 0.922166 0.715000 0.338964
O O6 0.643424 0.490044 0.203773
O O7 0.889158 0.209753 0.425023
O O8 0.263519 0.274614 0.534296
O O9 0.288852 0.116218 0.460641
O O10 0.965100 0.131375 0.323093
O O11 0.345686 0.161071 0.752799
O O12 0.184816 0.859372 0.885977
O O13 0.154250 0.128756 0.249729
O O14 0.000000 0.500000 0.000000
O O15 0.428546 0.491363 0.320586
O O16 0.504147 0.031258 0.222031
O O17 0.500000 0.500000 0.000000
O O18 0.500000 0.000000 0.500000
#
# Coordination Sequence:
#
# PCOD9003279 Si02
#       8
#     2   2   2   2   2   2   2   2
#     4  10  21  37  59  87 118 158 204 255 309 369
#     4   9  19  37  60  86 118 159 202 253 307 367
#     4  10  21  39  60  87 124 160 204 256 307 372
#     4  10  21  38  60  88 121 161 205 253 310 373
#     4  10  23  42  61  87 124 163 207 257 310 372
#     4  11  22  38  62  90 121 163 205 257 315 371
#     4   9  20  39  58  86 121 155 204 257 307 368
#     4  11  24  42  64  93 126 165 209 260 315 372
#
# _framework density 24.352815
#
# number of rings (size 3 to 8) (size 9 to 14) (size 15 to 20)
#    0.000    2.000    0.000    2.625    0.000    8.000 
#    0.000   15.000    0.000    0.000    0.000    0.000 
#    0.000    0.000    0.000    0.000    0.000    0.000 
#
# Total GULP energy -89100.478192 kJ/mol
# GULP energy per Si atom -5568.779887 kJ/mol
# Density = 2.429739 g / cm^3
# Si number density = 24.352815 Si / 1000 Ang^3
#
#
#
# Elastic Constant Matrix: (Units=GPa)
#
#
# Indices 1 2 3 4 5 6 
#
# 1 100.1041 32.7389 28.3668 -15.1875 -33.5758 18.1027
# 2 32.7389 132.4764 17.0397 -5.5542 -8.8186 11.5292
# 3 28.3668 17.0397 61.5717 -1.0667 -14.5811 5.3776
# 4 -15.1875 -5.5542 -1.0667 56.1869 5.8302 -8.1276
# 5 -33.5758 -8.8186 -14.5811 5.8302 33.6388 -10.9421
# 6 18.1027 11.5292 5.3776 -8.1276 -10.9421 51.7061
#
#
#
# Elastic Compliance Matrix: (Units=1/GPa)
#
#
# Indices 1 2 3 4 5 6 
#
# 1 0.017288 -0.002602 -0.003750 0.002651 0.013930 -0.001718
# 2 -0.002602 0.008372 -0.001342 0.000082 -0.001353 -0.001090
# 3 -0.003750 -0.001342 0.019385 -0.001204 0.004643 0.000389
# 4 0.002651 0.000082 -0.001204 0.018842 -0.000455 0.002044
# 5 0.013930 -0.001353 0.004643 -0.000455 0.046930 0.004802
# 6 -0.001718 -0.001090 0.000389 0.002044 0.004802 0.021481
#
#
# Mechanical properties :
#
#
# Convention : Reuss Voigt Hill
#
# Bulk Modulus (GPa) = 33.71822 50.04922 41.88372
# Shear Modulus (GPa) = 31.73110 42.70683 37.21896
#
# Velocity S-wave (km/s) = 3.61359 4.19223 3.91362
# Velocity P-wave (km/s) = 5.59343 6.63546 6.13661
#
# Compressibility (1/GPa) = 0.02965756
#
# Stress axis : x y z
#
# Youngs Moduli (GPa) = 57.84219 119.44006 51.58638
#
# Poissons Ratio (x) = 0.31081 0.19345
# Poissons Ratio (y) = 0.15052 0.06922
# Poissons Ratio (z) = 0.21691 0.16028
#
# Static dielectric constant tensor:
#      x y z
#    x 1.984450 0.169830 0.034600 
#    y 0.169830 2.369750 -0.053940 
#    z 0.034600 -0.053940 2.092390 
# 
# From -- ./inp_files/469746.got.cif
#   From: 2010.05.17/outbox.cif.g08.bks.cpg/sg2_235_cif.got.tgz:469746.got - 2010.06.03 11:33:40.
