data_PCOD9003401
_publ_section_title
;
Structure prediction by ZEFSAII (Michael W. Deem and Ramdas Pophale) SiO2 
 PCOD9003401
Probable space group: P -1
;
_chemical_formula_sum "Si O2"
_cell_formula_units_Z 16
_cell_length_a 19.406154
_cell_length_b 16.927852
_cell_length_c 5.779021
_cell_angle_alpha 99.517761
_cell_angle_beta 79.683952
_cell_angle_gamma 29.862673
_cell_volume 703.081888
_symmetry_space_group_name_H-M "P -1"
_symmetry_group_IT_number 2
_symmetry_cell_setting 'triclinic'
loop_
_space_group_symop_operation_xyz
x,y,z
-x,-y,-z
loop_
_atom_site_type_symbol
_atom_site_label
_atom_site_fract_x
_atom_site_fract_y
_atom_site_fract_z
Si Si1 0.486864 0.258867 0.094711
Si Si2 0.487597 0.385330 0.525506
Si Si3 0.404614 0.209624 0.435778
Si Si4 0.946693 0.490482 0.715428
Si Si5 0.708569 0.835628 0.403234
Si Si6 0.341607 0.678115 0.991113
Si Si7 0.175161 0.541612 0.090121
Si Si8 0.205448 0.968603 0.443938
O O1 0.418892 0.384585 0.412513
O O2 0.495873 0.160378 0.146977
O O3 0.342349 0.412733 0.045696
O O4 0.679226 0.094277 0.825182
O O5 0.326762 0.604771 0.859397
O O6 0.577667 0.351709 0.273714
O O7 0.655259 0.184242 0.496220
O O8 0.356321 0.168254 0.394301
O O9 0.545672 0.055903 0.492407
O O10 0.234141 0.436299 0.764057
O O11 0.866886 0.487173 0.716921
O O12 0.000000 0.500000 0.500000
O O13 0.136556 0.274430 0.631822
O O14 0.806402 0.684051 0.062493
O O15 0.500000 0.500000 0.000000
O O16 0.192026 0.893050 0.306044
O O17 0.994167 0.784639 0.277801
#
# Coordination Sequence:
#
# PCOD9003401 Si02
#       8
#     2   2   2   2   2   2   2   2
#     4  11  23  38  60  90 121 163 203 250 305 365
#     4   9  18  36  64  89 122 164 198 246 301 359
#     4  10  22  40  59  82 123 158 202 257 306 361
#     4  10  21  37  60  85 115 156 206 253 304 362
#     4   9  21  39  58  83 112 161 205 248 308 366
#     4   8  16  35  63  93 121 158 204 241 295 366
#     4  11  25  38  57  92 125 154 205 259 302 363
#     4  10  22  39  62  93 123 160 204 250 305 360
#
# _framework density 22.756951000000001
#
# number of rings (size 3 to 8) (size 9 to 14) (size 15 to 20)
#    0.000    2.250    0.000    1.500    5.250    2.000 
#    0.000    4.375    0.000   30.750    0.000    0.000 
#    0.000    0.000    0.000    0.000    0.000    0.000 
#
# Total GULP energy -89329.890797 kJ/mol
# GULP energy per Si atom -5583.118175 kJ/mol
# Density = 2.270516 g / cm^3
# Si number density = 22.756951 Si / 1000 Ang^3
#
#
#
# Elastic Constant Matrix: (Units=GPa)
#
#
# Indices 1 2 3 4 5 6 
#
# 1 57.3571 17.2755 11.4353 8.5622 9.8354 -4.0288
# 2 17.2755 71.1196 31.2686 16.6382 1.9120 14.8472
# 3 11.4353 31.2686 64.4983 15.0410 7.5929 8.9084
# 4 8.5622 16.6382 15.0410 43.4897 9.4754 -5.4969
# 5 9.8354 1.9120 7.5929 9.4754 34.4047 -5.8504
# 6 -4.0288 14.8472 8.9084 -5.4969 -5.8504 36.0065
#
#
#
# Elastic Compliance Matrix: (Units=1/GPa)
#
#
# Indices 1 2 3 4 5 6 
#
# 1 0.020264 -0.005088 -0.001079 -0.000188 -0.004564 0.003862
# 2 -0.005088 0.021619 -0.007219 -0.006295 0.002167 -0.008307
# 3 -0.001079 -0.007219 0.021014 -0.003991 -0.003426 -0.003509
# 4 -0.000188 -0.006295 -0.003991 0.028907 -0.005472 0.007086
# 5 -0.004564 0.002167 -0.003426 -0.005472 0.033194 0.004001
# 6 0.003862 -0.008307 -0.003509 0.007086 0.004001 0.034230
#
#
# Mechanical properties :
#
#
# Convention : Reuss Voigt Hill
#
# Bulk Modulus (GPa) = 27.68047 34.77043 31.22545
# Shear Modulus (GPa) = 25.24749 31.64656 28.44703
#
# Velocity S-wave (km/s) = 3.33444 3.73316 3.53942
# Velocity P-wave (km/s) = 5.19756 5.82187 5.51855
#
# Compressibility (1/GPa) = 0.03612655
#
# Stress axis : x y z
#
# Youngs Moduli (GPa) = 49.34887 46.25573 47.58802
#
# Poissons Ratio (x) = 0.23533 0.05133
# Poissons Ratio (y) = 0.25107 0.34352
# Poissons Ratio (z) = 0.05323 0.33391
#
# Static dielectric constant tensor:
#      x y z
#    x 1.886740 0.032570 0.032280 
#    y 0.032570 1.839920 -0.024280 
#    z 0.032280 -0.024280 1.896360 
# 
# From -- ./inp_files/120066.got.cif
#   From: 2010.05.17/outbox.cif.g08.bks.cpg/sg2_61_cif.got.tgz:120066.got - 2010.06.03 11:33:40.
