data_PCOD9003238
_publ_section_title
;
Structure prediction by ZEFSAII (Michael W. Deem and Ramdas Pophale) SiO2 
 PCOD9003238
Probable space group: P -1
;
_chemical_formula_sum "Si O2"
_cell_formula_units_Z 14
_cell_length_a 7.645240
_cell_length_b 12.301194
_cell_length_c 9.470816
_cell_angle_alpha 135.477856
_cell_angle_beta 99.945034
_cell_angle_gamma 68.217494
_cell_volume 574.142707
_symmetry_space_group_name_H-M "P -1"
_symmetry_group_IT_number 2
_symmetry_cell_setting 'triclinic'
loop_
_space_group_symop_operation_xyz
x,y,z
-x,-y,-z
loop_
_atom_site_type_symbol
_atom_site_label
_atom_site_fract_x
_atom_site_fract_y
_atom_site_fract_z
Si Si1 0.275430 0.607968 0.309303
Si Si2 0.759377 0.915098 0.317719
Si Si3 0.456377 0.846047 0.712608
Si Si4 0.802136 0.538075 0.431247
Si Si5 0.600450 0.286649 0.140342
Si Si6 0.884782 0.612007 0.215313
Si Si7 0.204341 0.802571 0.212799
O O1 0.355731 0.730624 0.515018
O O2 0.390512 0.419404 0.196404
O O3 0.294902 0.640689 0.175704
O O4 0.050597 0.665231 0.358377
O O5 0.728314 0.768365 0.265888
O O6 0.975263 0.847170 0.222521
O O7 0.614566 0.990145 0.240078
O O8 0.758114 0.053172 0.559355
O O9 0.675002 0.728242 0.623217
O O10 0.399801 0.850048 0.871684
O O11 0.702693 0.407023 0.335171
O O12 0.816493 0.526949 0.252825
O O13 0.000000 0.500000 0.500000
O O14 0.709436 0.213846 0.944812
O O15 0.000000 0.500000 0.000000
#
# Coordination Sequence:
#
# PCOD9003238 Si02
#       7
#     2   2   2   2   2   2   2
#     4   9  18  36  57  85 115 147 193 236 276 330
#     4   9  20  38  55  84 116 148 188 233 293 335
#     4  10  21  37  59  83 117 155 192 236 276 333
#     4  11  22  37  58  87 121 154 186 234 293 335
#     4  11  20  35  61  88 110 149 199 235 275 335
#     4  11  22  38  62  86 115 149 187 237 288 348
#     4   9  18  33  59  84 112 147 191 242 274 327
#
# _framework density 24.384180000000001
#
# number of rings (size 3 to 8) (size 9 to 14) (size 15 to 20)
#    0.000    2.000    0.000    6.429    0.000    3.429 
#    0.000    1.429    0.000    5.143    0.000    0.000 
#    0.000    0.000    0.000    0.000    0.000    0.000 
#
# Total GULP energy -78365.939745 kJ/mol
# GULP energy per Si atom -5597.567125 kJ/mol
# Density = 2.432868 g / cm^3
# Si number density = 24.384180 Si / 1000 Ang^3
#
#
#
# Elastic Constant Matrix: (Units=GPa)
#
#
# Indices 1 2 3 4 5 6 
#
# 1 59.1983 43.2668 16.1050 -12.6052 -3.9149 -15.9450
# 2 43.2668 186.1583 41.4731 -18.6154 -12.6852 -9.0645
# 3 16.1050 41.4731 73.7112 -24.7991 -17.4613 -0.4568
# 4 -12.6052 -18.6154 -24.7991 36.8764 8.6725 -4.7582
# 5 -3.9149 -12.6852 -17.4613 8.6725 35.3191 -9.8861
# 6 -15.9450 -9.0645 -0.4568 -4.7582 -9.8861 36.4927
#
#
#
# Elastic Compliance Matrix: (Units=1/GPa)
#
#
# Indices 1 2 3 4 5 6 
#
# 1 0.024825 -0.004341 0.000168 0.007249 0.002700 0.011447
# 2 -0.004341 0.007064 -0.002877 -0.000002 0.000632 -0.000007
# 3 0.000168 -0.002877 0.020658 0.011172 0.007310 0.003054
# 4 0.007249 -0.000002 0.011172 0.038345 -0.000827 0.008082
# 5 0.002700 0.000632 0.007310 -0.000827 0.035736 0.011001
# 6 0.011447 -0.000007 0.003054 0.008082 0.011001 0.036475
#
#
# Mechanical properties :
#
#
# Convention : Reuss Voigt Hill
#
# Bulk Modulus (GPa) = 26.01018 57.86196 41.93607
# Shear Modulus (GPa) = 26.31312 36.28583 31.29947
#
# Velocity S-wave (km/s) = 3.28854 3.86176 3.58662
# Velocity P-wave (km/s) = 5.01092 6.60796 5.86406
#
# Compressibility (1/GPa) = 0.03844649
#
# Stress axis : x y z
#
# Youngs Moduli (GPa) = 40.28215 141.55915 48.40754
#
# Poissons Ratio (x) = 0.61449 -0.00813
# Poissons Ratio (y) = 0.17486 0.13928
# Poissons Ratio (z) = -0.00676 0.40730
#
# Static dielectric constant tensor:
#      x y z
#    x 1.978290 0.010270 0.027550 
#    y 0.010270 1.959700 0.019600 
#    z 0.027550 0.019600 1.977080 
# 
# From -- ./inp_files/157321.got.cif
#   From: 2010.05.17/outbox.cif.g08.bks.cpg/sg2_79_cif.got.tgz:157321.got - 2010.06.03 11:33:40.
