data_PCOD9003376
_publ_section_title
;
Structure prediction by ZEFSAII (Michael W. Deem and Ramdas Pophale) SiO2 
 PCOD9003376
Probable space group: P -1
;
_chemical_formula_sum "Si O2"
_cell_formula_units_Z 16
_cell_length_a 9.334846
_cell_length_b 8.831838
_cell_length_c 15.543104
_cell_angle_alpha 53.635374
_cell_angle_beta 117.916443
_cell_angle_gamma 75.607975
_cell_volume 613.848661
_symmetry_space_group_name_H-M "P -1"
_symmetry_group_IT_number 2
_symmetry_cell_setting 'triclinic'
loop_
_space_group_symop_operation_xyz
x,y,z
-x,-y,-z
loop_
_atom_site_type_symbol
_atom_site_label
_atom_site_fract_x
_atom_site_fract_y
_atom_site_fract_z
Si Si1 0.225088 0.652336 0.062900
Si Si2 0.940460 0.515187 0.663601
Si Si3 0.264717 0.246336 0.702149
Si Si4 0.431936 0.651579 0.284274
Si Si5 0.930446 0.588164 0.831913
Si Si6 0.428998 0.800357 0.413788
Si Si7 0.785884 0.275231 0.145811
Si Si8 0.279985 0.944947 0.665722
O O1 0.252574 0.738127 0.130627
O O2 0.067632 0.596657 0.045236
O O3 0.497936 0.341542 0.223951
O O4 0.157381 0.833328 0.899422
O O5 0.931933 0.499307 0.767621
O O6 0.709244 0.596606 0.539339
O O7 0.189309 0.253078 0.774833
O O8 0.875210 0.788073 0.529448
O O9 0.412609 0.310458 0.721758
O O10 0.000000 0.500000 0.500000
O O11 0.377282 0.998106 0.752575
O O12 0.323276 0.818765 0.287722
O O13 0.582712 0.343638 0.465757
O O14 0.124372 0.588153 0.876766
O O15 0.689708 0.908720 0.682237
O O16 0.876571 0.073140 0.318970
O O17 0.500000 0.500000 0.000000
#
# Coordination Sequence:
#
# PCOD9003376 Si02
#       8
#     2   2   2   2   2   2   2   2
#     4  11  22  43  66  87 124 168 218 252 296 367
#     4  11  21  37  65  99 127 157 199 252 323 374
#     4  10  21  37  59  92 133 165 190 252 318 372
#     4  11  22  37  64  95 134 158 202 256 315 372
#     4  12  23  41  68  91 122 166 209 257 316 364
#     4  11  22  38  62  99 129 160 194 263 321 370
#     4  10  26  43  63  88 122 168 217 259 293 361
#     4  10  21  42  62  91 130 160 205 251 309 372
#
# _framework density 26.065055000000001
#
# number of rings (size 3 to 8) (size 9 to 14) (size 15 to 20)
#    0.000    1.250    5.000    1.500    7.000    0.500 
#    0.000    1.250    2.750    0.000    0.000    0.000 
#    0.000    0.000    0.000    0.000    0.000    0.000 
#
# Total GULP energy -89513.107223 kJ/mol
# GULP energy per Si atom -5594.569201 kJ/mol
# Density = 2.600573 g / cm^3
# Si number density = 26.065055 Si / 1000 Ang^3
#
#
#
# Elastic Constant Matrix: (Units=GPa)
#
#
# Indices 1 2 3 4 5 6 
#
# 1 199.4172 39.7908 33.4318 1.8795 -3.8535 13.2230
# 2 39.7908 94.9395 21.9994 17.0518 0.3702 -1.8057
# 3 33.4318 21.9994 23.6106 -1.3805 -7.5662 1.1876
# 4 1.8795 17.0518 -1.3805 39.8143 3.8623 -2.2252
# 5 -3.8535 0.3702 -7.5662 3.8623 40.0682 4.8527
# 6 13.2230 -1.8057 1.1876 -2.2252 4.8527 49.8537
#
#
#
# Elastic Compliance Matrix: (Units=1/GPa)
#
#
# Indices 1 2 3 4 5 6 
#
# 1 0.006778 -0.000675 -0.009187 -0.000352 -0.000857 -0.001536
# 2 -0.000675 0.015474 -0.014698 -0.006810 -0.002451 0.001024
# 3 -0.009187 -0.014698 0.073552 0.008031 0.012452 -0.000702
# 4 -0.000352 -0.006810 0.008031 0.028517 -0.001331 0.001058
# 5 -0.000857 -0.002451 0.012452 -0.001331 0.027731 -0.002917
# 6 -0.001536 0.001024 -0.000702 0.001058 -0.002917 0.020851
#
#
# Mechanical properties :
#
#
# Convention : Reuss Voigt Hill
#
# Bulk Modulus (GPa) = 21.41989 56.49016 38.95502
# Shear Modulus (GPa) = 21.04547 40.79691 30.92119
#
# Velocity S-wave (km/s) = 2.84460 3.96055 3.44802
# Velocity P-wave (km/s) = 4.36173 6.52950 5.55244
#
# Compressibility (1/GPa) = 0.04668558
#
# Stress axis : x y z
#
# Youngs Moduli (GPa) = 147.53773 64.62611 13.59590
#
# Poissons Ratio (x) = 0.04360 0.12490
# Poissons Ratio (y) = 0.09953 0.19983
# Poissons Ratio (z) = 1.35537 0.94985
#
# Static dielectric constant tensor:
#      x y z
#    x 2.040430 -0.006260 -0.019110 
#    y -0.006260 2.113020 0.016930 
#    z -0.019110 0.016930 2.106140 
# 
# From -- ./inp_files/494527.got.cif
#   From: 2010.05.17/outbox.cif.g08.bks.cpg/sg2_248_cif.got.tgz:494527.got - 2010.06.03 11:33:40.
