data_PCOD9003119
_publ_section_title
;
Structure prediction by ZEFSAII (Michael W. Deem and Ramdas Pophale) SiO2 
 PCOD9003119
Probable space group: P -1
;
_chemical_formula_sum "Si O2"
_cell_formula_units_Z 14
_cell_length_a 11.779388
_cell_length_b 6.901905
_cell_length_c 24.222904
_cell_angle_alpha 50.214394
_cell_angle_beta 152.630937
_cell_angle_gamma 122.580885
_cell_volume 693.224089
_symmetry_space_group_name_H-M "P -1"
_symmetry_group_IT_number 2
_symmetry_cell_setting 'triclinic'
loop_
_space_group_symop_operation_xyz
x,y,z
-x,-y,-z
loop_
_atom_site_type_symbol
_atom_site_label
_atom_site_fract_x
_atom_site_fract_y
_atom_site_fract_z
Si Si1 0.376348 0.576677 0.681052
Si Si2 0.400607 0.146948 0.555235
Si Si3 0.212283 0.007252 0.391788
Si Si4 0.158652 0.431733 0.503352
Si Si5 0.053890 0.907285 0.227027
Si Si6 0.649918 0.233455 0.950269
Si Si7 0.555409 0.694068 0.035558
O O1 0.452129 0.845761 0.643915
O O2 0.313500 0.409893 0.631101
O O3 0.564979 0.419092 0.831157
O O4 0.117123 0.638020 0.590372
O O5 0.210924 0.169751 0.417392
O O6 0.288737 0.283630 0.535855
O O7 0.674686 0.222632 0.644586
O O8 0.143132 0.728910 0.428650
O O9 0.067924 0.059849 0.262998
O O10 0.500000 0.000000 0.500000
O O11 0.844760 0.708230 0.174513
O O12 0.933321 0.111902 0.093768
O O13 0.589474 0.354452 0.962067
O O14 0.497211 0.980630 0.934273
O O15 0.500000 0.500000 0.000000
#
# Coordination Sequence:
#
# PCOD9003119 Si02
#       7
#     2   2   2   2   2   2   2
#     4  10  21  39  57  78 117 154 191 237 286 325
#     4  10  21  38  57  86 114 153 195 229 286 335
#     4   9  19  37  56  84 118 147 181 233 294 329
#     4  10  21  37  58  84 111 152 201 236 269 346
#     4   9  19  38  57  85 121 143 186 238 285 342
#     4   9  20  38  58  84 117 144 189 235 281 346
#     4   9  19  38  56  86 111 148 187 226 288 336
#
# _framework density 20.195488999999998
#
# number of rings (size 3 to 8) (size 9 to 14) (size 15 to 20)
#    0.857    1.714    0.000    1.286    0.000    4.000 
#   12.857    0.714    0.000    0.000    0.000    0.000 
#    0.000    0.000    0.000    0.000    0.000    0.000 
#
# Total GULP energy -78000.633629 kJ/mol
# GULP energy per Si atom -5571.473831 kJ/mol
# Density = 2.014952 g / cm^3
# Si number density = 20.195489 Si / 1000 Ang^3
#
#
#
# Elastic Constant Matrix: (Units=GPa)
#
#
# Indices 1 2 3 4 5 6 
#
# 1 63.7798 15.1008 18.8858 15.0212 -1.9285 -25.3640
# 2 15.1008 55.4064 27.1650 14.1603 -4.2332 -21.5526
# 3 18.8858 27.1650 106.2364 10.9274 -12.9134 -18.1025
# 4 15.0212 14.1603 10.9274 25.6422 8.9732 -8.7941
# 5 -1.9285 -4.2332 -12.9134 8.9732 29.5052 7.1422
# 6 -25.3640 -21.5526 -18.1025 -8.7941 7.1422 47.0395
#
#
#
# Elastic Compliance Matrix: (Units=1/GPa)
#
#
# Indices 1 2 3 4 5 6 
#
# 1 0.022171 0.001189 -0.001285 -0.010389 0.001849 0.009782
# 2 0.001189 0.026194 -0.003786 -0.012013 0.003808 0.008362
# 3 -0.001285 -0.003786 0.011788 -0.003968 0.005614 0.000514
# 4 -0.010389 -0.012013 -0.003968 0.062688 -0.023860 0.002709
# 5 0.001849 0.003808 0.005614 -0.023860 0.045851 -0.006520
# 6 0.009782 0.008362 0.000514 0.002709 -0.006520 0.032059
#
#
# Mechanical properties :
#
#
# Convention : Reuss Voigt Hill
#
# Bulk Modulus (GPa) = 19.08816 38.63618 28.86217
# Shear Modulus (GPa) = 22.12607 31.38879 26.75743
#
# Velocity S-wave (km/s) = 3.31357 3.94667 3.64390
# Velocity P-wave (km/s) = 4.91038 6.31988 5.65919
#
# Compressibility (1/GPa) = 0.05238851
#
# Stress axis : x y z
#
# Youngs Moduli (GPa) = 45.10461 38.17598 84.83387
#
# Poissons Ratio (x) = -0.04539 0.10903
# Poissons Ratio (y) = -0.05363 0.32117
# Poissons Ratio (z) = 0.05797 0.14453
#
# Static dielectric constant tensor:
#      x y z
#    x 2.037180 0.219000 -0.037500 
#    y 0.219000 1.877010 -0.027900 
#    z -0.037500 -0.027900 1.757360 
# 
# From -- ./inp_files/592490.got.cif
#   From: 2010.05.17/outbox.cif.g08.bks.cpg/sg2_297_cif.got.tgz:592490.got - 2010.06.03 11:33:40.
