data_PCOD9003089
_publ_section_title
;
Structure prediction by ZEFSAII (Michael W. Deem and Ramdas Pophale) SiO2 
 PCOD9003089
Probable space group: P -1
;
_chemical_formula_sum "Si O2"
_cell_formula_units_Z 12
_cell_length_a 4.841391
_cell_length_b 23.704429
_cell_length_c 5.350738
_cell_angle_alpha 112.005352
_cell_angle_beta 90.765304
_cell_angle_gamma 128.234318
_cell_volume 421.079683
_symmetry_space_group_name_H-M "P -1"
_symmetry_group_IT_number 2
_symmetry_cell_setting 'triclinic'
loop_
_space_group_symop_operation_xyz
x,y,z
-x,-y,-z
loop_
_atom_site_type_symbol
_atom_site_label
_atom_site_fract_x
_atom_site_fract_y
_atom_site_fract_z
Si Si1 0.245075 0.997533 0.186909
Si Si2 0.170429 0.734220 0.153394
Si Si3 0.412547 0.602209 0.421523
Si Si4 0.849580 0.138676 0.802226
Si Si5 0.967736 0.573966 0.870187
Si Si6 0.264829 0.774268 0.723578
O O1 0.491012 0.071725 0.509843
O O2 0.041787 0.914034 0.206035
O O3 0.500000 0.000000 0.000000
O O4 0.000000 0.000000 0.000000
O O5 0.993180 0.775305 0.187900
O O6 0.428854 0.777687 0.471156
O O7 0.408805 0.760867 0.947645
O O8 0.901681 0.636368 0.989506
O O9 0.379730 0.523775 0.297166
O O10 0.833453 0.688280 0.558105
O O11 0.199775 0.593856 0.653762
O O12 0.198883 0.592852 0.155428
O O13 0.742667 0.156664 0.092125
#
# Coordination Sequence:
#
# PCOD9003089 Si02
#       6
#     2   2   2   2   2   2
#     4  11  24  49  76 106 149 190 239 298 365 444
#     4  10  21  39  61  92 130 170 232 291 348 420
#     4  10  21  37  57  88 129 177 233 289 352 420
#     4   9  24  42  67 106 138 182 239 294 368 435
#     4  10  21  37  57  88 129 177 233 289 352 420
#     4  10  21  39  61  92 130 170 232 291 348 420
#
# _framework density 28.498165
#
# number of rings (size 3 to 8) (size 9 to 14) (size 15 to 20)
#    1.000    1.000    0.000    3.000    0.000    5.333 
#    6.000    0.000    0.000    0.000    0.000    0.000 
#    0.000    0.000    0.000    0.000    0.000    0.000 
#
# Total GULP energy -67155.840512 kJ/mol
# GULP energy per Si atom -5596.320043 kJ/mol
# Density = 2.843330 g / cm^3
# Si number density = 28.498165 Si / 1000 Ang^3
#
#
#
# Elastic Constant Matrix: (Units=GPa)
#
#
# Indices 1 2 3 4 5 6 
#
# 1 95.3820 60.2777 31.3180 -1.3364 -10.9380 -36.2249
# 2 60.2777 220.3157 75.1133 41.0255 2.7871 -47.2168
# 3 31.3180 75.1133 225.7835 -12.8024 -25.0680 -18.9071
# 4 -1.3364 41.0255 -12.8024 82.5943 -9.3220 -4.6032
# 5 -10.9380 2.7871 -25.0680 -9.3220 31.6768 1.6686
# 6 -36.2249 -47.2168 -18.9071 -4.6032 1.6686 60.3670
#
#
#
# Elastic Compliance Matrix: (Units=1/GPa)
#
#
# Indices 1 2 3 4 5 6 
#
# 1 0.016258 -0.003904 0.000613 0.003487 0.007102 0.006964
# 2 -0.003904 0.008283 -0.002929 -0.005149 -0.006068 0.002994
# 3 0.000613 -0.002929 0.006203 0.003142 0.006298 0.000085
# 4 0.003487 -0.005149 0.003142 0.016217 0.008914 0.000039
# 5 0.007102 -0.006068 0.006298 0.008914 0.042109 0.001004
# 6 0.006964 0.002994 0.000085 0.000039 0.001004 0.023088
#
#
# Mechanical properties :
#
#
# Convention : Reuss Voigt Hill
#
# Bulk Modulus (GPa) = 54.63182 97.21103 75.92142
# Shear Modulus (GPa) = 38.25586 59.91243 49.08415
#
# Velocity S-wave (km/s) = 3.66785 4.59009 4.15464
# Velocity P-wave (km/s) = 6.09503 7.89159 7.05077
#
# Compressibility (1/GPa) = 0.01830435
#
# Stress axis : x y z
#
# Youngs Moduli (GPa) = 61.50773 120.73243 161.21296
#
# Poissons Ratio (x) = 0.47130 -0.09881
# Poissons Ratio (y) = 0.24011 0.47219
# Poissons Ratio (z) = -0.03770 0.35362
#
# Static dielectric constant tensor:
#      x y z
#    x 2.314590 0.129930 0.021580 
#    y 0.129930 2.311190 -0.122810 
#    z 0.021580 -0.122810 2.282620 
# 
# From -- ./inp_files/7724.got.cif
#   From: 2010.05.17/outbox.cif.g08.bks.cpg/sg2_4_cif.got.tgz:7724.got - 2010.06.03 11:33:40.
