data_PCOD9003552
_publ_section_title
;
Structure prediction by ZEFSAII (Michael W. Deem and Ramdas Pophale) SiO2 
 PCOD9003552
Probable space group: P -1
;
_chemical_formula_sum "Si O2"
_cell_formula_units_Z 16
_cell_length_a 13.314799
_cell_length_b 9.963486
_cell_length_c 15.915228
_cell_angle_alpha 87.781087
_cell_angle_beta 157.205712
_cell_angle_gamma 89.499490
_cell_volume 811.970313
_symmetry_space_group_name_H-M "P -1"
_symmetry_group_IT_number 2
_symmetry_cell_setting 'triclinic'
loop_
_space_group_symop_operation_xyz
x,y,z
-x,-y,-z
loop_
_atom_site_type_symbol
_atom_site_label
_atom_site_fract_x
_atom_site_fract_y
_atom_site_fract_z
Si Si1 0.580229 0.576723 0.143231
Si Si2 0.493803 0.231952 0.302978
Si Si3 0.904372 0.384373 0.532573
Si Si4 0.852420 0.499274 0.973704
Si Si5 0.363976 0.862181 0.409433
Si Si6 0.005401 0.613760 0.740286
Si Si7 0.154107 0.000670 0.028346
Si Si8 0.539537 0.263157 0.695530
O O1 0.710207 0.469015 0.314415
O O2 0.819789 0.658848 0.299976
O O3 0.500000 0.500000 0.000000
O O4 0.302498 0.647931 0.959217
O O5 0.754705 0.266627 0.458442
O O6 0.269563 0.350175 0.101525
O O7 0.521893 0.232047 0.425235
O O8 0.394157 0.088366 0.213515
O O9 0.967120 0.488283 0.652050
O O10 0.620832 0.407723 0.779257
O O11 0.020394 0.434492 0.182391
O O12 0.000000 0.500000 0.000000
O O13 0.391959 0.778383 0.346916
O O14 0.500000 0.000000 0.500000
O O15 0.068116 0.921230 0.201851
O O16 0.771493 0.729088 0.535322
O O17 0.274842 0.848958 0.107080
O O18 0.000000 0.000000 0.000000
#
# Coordination Sequence:
#
# PCOD9003552 Si02
#       8
#     2   2   2   2   2   2   2   2
#     4   9  19  38  63  88 127 153 192 252 320 372
#     4  12  22  37  58  88 122 154 209 251 290 362
#     4  10  21  37  60  96 119 157 201 251 311 365
#     4  12  25  34  55  89 129 158 200 256 301 349
#     4  11  23  39  59  79 117 171 214 244 289 353
#     4  11  21  38  59  88 127 159 196 249 315 359
#     4  10  22  38  54  77 115 166 208 243 288 355
#     4  11  23  37  56  83 120 164 207 239 301 360
#
# _framework density 19.705152999999999
#
# number of rings (size 3 to 8) (size 9 to 14) (size 15 to 20)
#    0.000    1.250    5.000    2.250    5.250    1.000 
#    0.000    0.000    0.000    0.750    0.000   13.125 
#    0.000    0.000    0.000    0.000    0.000    0.000 
#
# Total GULP energy -89248.403398 kJ/mol
# GULP energy per Si atom -5578.025212 kJ/mol
# Density = 1.966030 g / cm^3
# Si number density = 19.705153 Si / 1000 Ang^3
#
#
#
# Elastic Constant Matrix: (Units=GPa)
#
#
# Indices 1 2 3 4 5 6 
#
# 1 75.9875 14.5159 26.4537 11.9167 9.7426 8.2015
# 2 14.5159 44.8803 8.9444 1.0964 12.8174 10.3475
# 3 26.4537 8.9444 95.2045 -4.0789 21.0641 1.2191
# 4 11.9167 1.0964 -4.0789 30.9267 -4.8210 11.8552
# 5 9.7426 12.8174 21.0641 -4.8210 46.6195 6.4013
# 6 8.2015 10.3475 1.2191 11.8552 6.4013 18.6749
#
#
#
# Elastic Compliance Matrix: (Units=1/GPa)
#
#
# Indices 1 2 3 4 5 6 
#
# 1 0.016679 -0.004051 -0.004298 -0.007067 -0.001173 0.000088
# 2 -0.004051 0.028430 -0.000188 0.006268 -0.003960 -0.016583
# 3 -0.004298 -0.000188 0.012858 0.002008 -0.004864 0.001545
# 4 -0.007067 0.006268 0.002008 0.050007 0.008862 -0.035283
# 5 -0.001173 -0.003960 -0.004864 0.008862 0.027552 -0.012044
# 6 0.000088 -0.016583 0.001545 -0.035283 -0.012044 0.089123
#
#
# Mechanical properties :
#
#
# Convention : Reuss Voigt Hill
#
# Bulk Modulus (GPa) = 24.45441 35.10004 29.77722
# Shear Modulus (GPa) = 19.58050 30.32146 24.95098
#
# Velocity S-wave (km/s) = 3.15568 3.92696 3.56225
# Velocity P-wave (km/s) = 5.07098 6.19779 5.66248
#
# Compressibility (1/GPa) = 0.04089242
#
# Stress axis : x y z
#
# Youngs Moduli (GPa) = 59.95419 35.17382 77.77129
#
# Poissons Ratio (x) = 0.14248 0.33429
# Poissons Ratio (y) = 0.24286 0.01466
# Poissons Ratio (z) = 0.25771 0.00663
#
# Static dielectric constant tensor:
#      x y z
#    x 1.720010 -0.000630 0.011610 
#    y -0.000630 1.660510 0.004640 
#    z 0.011610 0.004640 1.764320 
# 
# From -- ./inp_files/459028.got.cif
#   From: 2010.05.17/outbox.cif.g08.bks.cpg/sg2_230_cif.got.tgz:459028.got - 2010.06.03 11:33:40.
