data_PCOD9003901
_publ_section_title
;
Structure prediction by ZEFSAII (Michael W. Deem and Ramdas Pophale) SiO2 
 PCOD9003901
Probable space group: P -1
;
_chemical_formula_sum "Si O2"
_cell_formula_units_Z 16
_cell_length_a 9.092674
_cell_length_b 11.848065
_cell_length_c 19.228768
_cell_angle_alpha 154.767472
_cell_angle_beta 100.361320
_cell_angle_gamma 65.668760
_cell_volume 698.470899
_symmetry_space_group_name_H-M "P -1"
_symmetry_group_IT_number 2
_symmetry_cell_setting 'triclinic'
loop_
_space_group_symop_operation_xyz
x,y,z
-x,-y,-z
loop_
_atom_site_type_symbol
_atom_site_label
_atom_site_fract_x
_atom_site_fract_y
_atom_site_fract_z
Si Si1 0.393015 0.797132 0.347909
Si Si2 0.017537 0.715080 0.387810
Si Si3 0.070337 0.085631 0.985784
Si Si4 0.498696 0.122892 0.992612
Si Si5 0.419985 0.368255 0.579205
Si Si6 0.711766 0.252861 0.990758
Si Si7 0.338386 0.503321 0.408546
Si Si8 0.221874 0.292576 0.405023
O O1 0.358034 0.513390 0.193603
O O2 0.491007 0.777258 0.418246
O O3 0.545029 0.631273 0.205914
O O4 0.188352 0.131864 0.514352
O O5 0.168416 0.610765 0.402395
O O6 0.000000 0.000000 0.500000
O O7 0.073210 0.395779 0.171394
O O8 0.909001 0.185996 0.972228
O O9 0.265248 0.755790 0.796542
O O10 0.000000 0.000000 0.000000
O O11 0.684598 0.082687 0.960069
O O12 0.495123 0.883620 0.806598
O O13 0.500000 0.000000 0.000000
O O14 0.579757 0.308683 0.507668
O O15 0.307653 0.262695 0.470107
O O16 0.697651 0.063737 0.820357
O O17 0.272345 0.497422 0.476219
O O18 0.000000 0.500000 0.500000
#
# Coordination Sequence:
#
# PCOD9003901 Si02
#       8
#     2   2   2   2   2   2   2   2
#     4  10  21  37  62  97 128 172 208 279 338 390
#     4  12  25  39  67 102 141 169 222 279 342 402
#     4  12  23  38  68 101 132 178 223 286 328 395
#     4   9  15  33  62  88 126 160 215 264 324 381
#     4  12  22  38  68  98 135 172 231 275 334 397
#     4   9  20  38  58  93 128 166 219 270 336 382
#     4  11  22  39  62  97 132 177 222 275 328 399
#     4  11  23  40  67  97 130 176 235 279 325 393
#
# _framework density 22.907181000000001
#
# number of rings (size 3 to 8) (size 9 to 14) (size 15 to 20)
#    0.750    0.500    5.000    2.625    1.750    0.500 
#    0.000    0.000    2.750    3.000    0.000    0.000 
#    0.000    0.000    0.000    0.000    0.000    0.000 
#
# Total GULP energy -89280.252522 kJ/mol
# GULP energy per Si atom -5580.015783 kJ/mol
# Density = 2.285504 g / cm^3
# Si number density = 22.907181 Si / 1000 Ang^3
#
#
#
# Elastic Constant Matrix: (Units=GPa)
#
#
# Indices 1 2 3 4 5 6 
#
# 1 109.1071 52.1811 35.3075 -5.8681 -9.7258 -15.0411
# 2 52.1811 87.4805 47.3294 1.5738 5.0940 -13.1078
# 3 35.3075 47.3294 123.7146 1.6879 0.4276 -17.5174
# 4 -5.8681 1.5738 1.6879 31.0776 -2.6123 0.1979
# 5 -9.7258 5.0940 0.4276 -2.6123 43.2975 -2.2883
# 6 -15.0411 -13.1078 -17.5174 0.1979 -2.2883 49.4341
#
#
#
# Elastic Compliance Matrix: (Units=1/GPa)
#
#
# Indices 1 2 3 4 5 6 
#
# 1 0.014114 -0.008036 -0.000719 0.003471 0.004443 0.002100
# 2 -0.008036 0.019292 -0.004933 -0.002579 -0.004143 0.000741
# 3 -0.000719 -0.004933 0.010493 -0.000436 0.000406 0.002212
# 4 0.003471 -0.002579 -0.000436 0.033247 0.003105 0.000228
# 5 0.004443 -0.004143 0.000406 0.003105 0.024846 0.001535
# 6 0.002100 0.000741 0.002212 0.000228 0.001535 0.021919
#
#
# Mechanical properties :
#
#
# Convention : Reuss Voigt Hill
#
# Bulk Modulus (GPa) = 60.52008 65.54869 63.03439
# Shear Modulus (GPa) = 31.88921 37.12745 34.50833
#
# Velocity S-wave (km/s) = 3.73514 4.03026 3.88550
# Velocity P-wave (km/s) = 6.71407 7.09467 6.90699
#
# Compressibility (1/GPa) = 0.01652344
#
# Stress axis : x y z
#
# Youngs Moduli (GPa) = 70.85379 51.83534 95.30054
#
# Poissons Ratio (x) = 0.41655 0.06851
# Poissons Ratio (y) = 0.56939 0.47008
# Poissons Ratio (z) = 0.05094 0.25568
#
# Static dielectric constant tensor:
#      x y z
#    x 1.980460 0.027450 0.021880 
#    y 0.027450 1.869180 0.005040 
#    z 0.021880 0.005040 1.898800 
# 
# From -- ./inp_files/590316.got.cif
#   From: 2010.05.17/outbox.cif.g08.bks.cpg/sg2_296_cif.got.tgz:590316.got - 2010.06.03 11:33:40.
