data_PCOD9003379
_publ_section_title
;
Structure prediction by ZEFSAII (Michael W. Deem and Ramdas Pophale) SiO2 
 PCOD9003379
Probable space group: P -1
;
_chemical_formula_sum "Si O2"
_cell_formula_units_Z 15
_cell_length_a 6.922669
_cell_length_b 22.119301
_cell_length_c 23.570885
_cell_angle_alpha 167.902034
_cell_angle_beta 124.950246
_cell_angle_gamma 54.646248
_cell_volume 616.423380
_symmetry_space_group_name_H-M "P -1"
_symmetry_group_IT_number 2
_symmetry_cell_setting 'triclinic'
loop_
_space_group_symop_operation_xyz
x,y,z
-x,-y,-z
loop_
_atom_site_type_symbol
_atom_site_label
_atom_site_fract_x
_atom_site_fract_y
_atom_site_fract_z
Si Si1 0.804321 0.564658 0.978300
Si Si2 0.890569 0.024450 0.217936
Si Si3 0.109757 0.607399 0.787035
Si Si4 0.667958 0.475341 0.450234
Si Si5 0.877496 0.206819 0.548839
Si Si6 0.273132 0.552871 0.885559
Si Si7 0.480188 0.397325 0.227704
Si Si8 0.000000 0.000000 0.000000
O O1 0.539679 0.574854 0.969443
O O2 0.835746 0.328150 0.716686
O O3 0.000000 0.500000 0.000000
O O4 0.844864 0.870217 0.236802
O O5 0.681367 0.363655 0.616727
O O6 0.955055 0.344984 0.518007
O O7 0.648225 0.890773 0.066494
O O8 0.960530 0.885802 0.041560
O O9 0.290657 0.521876 0.791300
O O10 0.252044 0.663221 0.806165
O O11 0.500000 0.500000 0.500000
O O12 0.504941 0.508977 0.397156
O O13 0.827231 0.737816 0.725539
O O14 0.822769 0.177348 0.183404
O O15 0.130161 0.303910 0.659594
O O16 0.089419 0.846243 0.128959
#
# Coordination Sequence:
#
# PCOD9003379 Si02
#       8
#     2   2   2   2   2   2   2   1
#     4  12  26  44  67  96 138 187 230 286 360 433
#     4   9  22  37  60  97 132 166 222 288 351 399
#     4  10  21  37  59  93 133 166 216 287 350 403
#     4  11  26  48  76 108 151 200 249 301 374 450
#     4  11  25  43  67  99 135 172 240 294 351 424
#     4   9  23  38  65  90 134 171 223 288 347 407
#     4  11  24  42  74 103 133 185 239 298 359 424
#     4  10  26  52  70 104 152 200 246 296 372 452
#
# _framework density 24.333926000000002
#
# number of rings (size 3 to 8) (size 9 to 14) (size 15 to 20)
#    0.800    0.800    1.333    1.600    3.733    8.533 
#    0.000    0.000    0.000    0.000    0.000    0.000 
#    0.000    0.000    0.000    0.000    0.000    0.000 
#
# Total GULP energy -83668.544495 kJ/mol
# GULP energy per Si atom -5577.902966 kJ/mol
# Density = 2.427854 g / cm^3
# Si number density = 24.333926 Si / 1000 Ang^3
#
#
#
# Elastic Constant Matrix: (Units=GPa)
#
#
# Indices 1 2 3 4 5 6 
#
# 1 168.4084 -39.9795 94.9224 21.1694 33.8658 2.4867
# 2 -39.9795 197.2762 -122.5078 -71.8196 -73.0653 -43.3149
# 3 94.9224 -122.5078 326.9996 53.0834 81.1136 25.0721
# 4 21.1694 -71.8196 53.0834 49.1100 31.9000 17.5354
# 5 33.8658 -73.0653 81.1136 31.9000 71.6801 7.5103
# 6 2.4867 -43.3149 25.0721 17.5354 7.5103 38.6010
#
#
#
# Elastic Compliance Matrix: (Units=1/GPa)
#
#
# Indices 1 2 3 4 5 6 
#
# 1 0.007274 -0.000315 -0.001797 -0.001219 -0.001303 0.001152
# 2 -0.000315 0.015283 0.001084 0.013063 0.007741 0.009025
# 3 -0.001797 0.001084 0.004974 -0.000465 -0.003359 -0.001033
# 4 -0.001219 0.013063 -0.000465 0.045680 -0.005423 -0.004657
# 5 -0.001303 0.007741 -0.003359 -0.005423 0.027833 0.008000
# 6 0.001152 0.009025 -0.001033 -0.004657 0.008000 0.037189
#
#
# Mechanical properties :
#
#
# Convention : Reuss Voigt Hill
#
# Bulk Modulus (GPa) = 39.25345 61.95050 50.60197
# Shear Modulus (GPa) = 33.60665 82.56148 58.08406
#
# Velocity S-wave (km/s) = 3.72030 5.83114 4.89095
# Velocity P-wave (km/s) = 5.88390 8.41725 7.26190
#
# Compressibility (1/GPa) = 0.02547547
#
# Stress axis : x y z
#
# Youngs Moduli (GPa) = 137.47275 65.43355 201.04952
#
# Poissons Ratio (x) = 0.02062 0.36126
# Poissons Ratio (y) = 0.04331 -0.21800
# Poissons Ratio (z) = 0.24702 -0.07095
#
# Static dielectric constant tensor:
#      x y z
#    x 1.935270 0.043270 -0.075500 
#    y 0.043270 1.803850 -0.010420 
#    z -0.075500 -0.010420 1.896180 
# 
# From -- ./inp_files/616009.got.cif
#   From: 2010.05.17/outbox.cif.g08.bks.cpg/sg2_309_cif.got.tgz:616009.got - 2010.06.03 11:33:40.
