data_PCOD9003627
_publ_section_title
;
Structure prediction by ZEFSAII (Michael W. Deem and Ramdas Pophale) SiO2 
 PCOD9003627
Probable space group: P -1
;
_chemical_formula_sum "Si O2"
_cell_formula_units_Z 16
_cell_length_a 6.296328
_cell_length_b 7.061546
_cell_length_c 19.559509
_cell_angle_alpha 120.334468
_cell_angle_beta 60.302200
_cell_angle_gamma 107.730737
_cell_volume 650.285145
_symmetry_space_group_name_H-M "P -1"
_symmetry_group_IT_number 2
_symmetry_cell_setting 'triclinic'
loop_
_space_group_symop_operation_xyz
x,y,z
-x,-y,-z
loop_
_atom_site_type_symbol
_atom_site_label
_atom_site_fract_x
_atom_site_fract_y
_atom_site_fract_z
Si Si1 0.720787 0.256704 0.736280
Si Si2 0.250122 0.429060 0.642736
Si Si3 0.841852 0.692640 0.511403
Si Si4 0.105218 0.869943 0.022223
Si Si5 0.374151 0.880423 0.419787
Si Si6 0.415851 0.327673 0.923437
Si Si7 0.408124 0.132533 0.129789
Si Si8 0.345339 0.256381 0.309549
O O1 0.611299 0.255958 0.677774
O O2 0.567468 0.370847 0.838145
O O3 0.996035 0.357734 0.705813
O O4 0.717996 0.999569 0.710750
O O5 0.204180 0.464690 0.575622
O O6 0.414103 0.216414 0.586898
O O7 0.383658 0.641496 0.695745
O O8 0.802527 0.624188 0.584356
O O9 0.108705 0.819526 0.484444
O O10 0.641649 0.872614 0.560125
O O11 0.875262 0.704950 0.049438
O O12 0.187862 0.044397 0.099711
O O13 0.357483 0.779329 0.937376
O O14 0.000000 0.000000 0.000000
O O15 0.497062 0.091469 0.893777
O O16 0.500000 0.500000 0.000000
O O17 0.322020 0.269671 0.233580
#
# Coordination Sequence:
#
# PCOD9003627 Si02
#       8
#     2   2   2   2   2   2   2   2
#     4   9  22  41  55  86 127 155 199 256 301 361
#     4  11  21  37  62  89 118 163 204 244 306 359
#     4   9  19  38  60  86 126 156 198 252 298 360
#     4   9  19  39  61  82 116 158 196 245 307 361
#     4   9  19  38  59  86 120 161 198 246 301 362
#     4  10  21  37  61  90 117 157 204 250 310 365
#     4   9  20  40  59  87 122 157 201 250 306 369
#     4  10  21  38  61  87 122 159 198 251 300 360
#
# _framework density 24.604590000000002
#
# number of rings (size 3 to 8) (size 9 to 14) (size 15 to 20)
#    0.000    2.500    0.000    1.500    1.750    3.000 
#    6.750   11.250    0.000    0.000    0.000    0.000 
#    0.000    0.000    0.000    0.000    0.000    0.000 
#
# Total GULP energy -89395.598581 kJ/mol
# GULP energy per Si atom -5587.224911 kJ/mol
# Density = 2.454859 g / cm^3
# Si number density = 24.604590 Si / 1000 Ang^3
#
#
#
# Elastic Constant Matrix: (Units=GPa)
#
#
# Indices 1 2 3 4 5 6 
#
# 1 141.3610 42.3171 66.9930 -24.8482 16.4413 25.1941
# 2 42.3171 89.1183 50.5178 -2.4940 -11.5668 25.7098
# 3 66.9930 50.5178 197.3801 -38.4035 26.2154 36.0903
# 4 -24.8482 -2.4940 -38.4035 36.1597 -7.3615 -10.2714
# 5 16.4413 -11.5668 26.2154 -7.3615 38.6046 9.4142
# 6 25.1941 25.7098 36.0903 -10.2714 9.4142 51.2951
#
#
#
# Elastic Compliance Matrix: (Units=1/GPa)
#
#
# Indices 1 2 3 4 5 6 
#
# 1 0.010284 -0.004853 -0.000612 0.005091 -0.004358 -0.000369
# 2 -0.004853 0.019942 -0.005008 -0.007025 0.011979 -0.007693
# 3 -0.000612 -0.005008 0.008894 0.007256 -0.005663 -0.000955
# 4 0.005091 -0.007025 0.007256 0.039011 -0.002795 0.004240
# 5 -0.004358 0.011979 -0.005663 -0.002795 0.036398 -0.007119
# 6 -0.000369 -0.007693 -0.000955 0.004240 -0.007119 0.026360
#
#
# Mechanical properties :
#
#
# Convention : Reuss Voigt Hill
#
# Bulk Modulus (GPa) = 55.02091 83.05722 69.03907
# Shear Modulus (GPa) = 29.78086 43.08064 36.43075
#
# Velocity S-wave (km/s) = 3.48282 4.18894 3.85209
# Velocity P-wave (km/s) = 6.21160 7.56481 6.92136
#
# Compressibility (1/GPa) = 0.01817491
#
# Stress axis : x y z
#
# Youngs Moduli (GPa) = 97.23523 50.14529 112.43127
#
# Poissons Ratio (x) = 0.24338 0.06876
# Poissons Ratio (y) = 0.47192 0.56304
# Poissons Ratio (z) = 0.05947 0.25112
#
# Static dielectric constant tensor:
#      x y z
#    x 1.954240 -0.047280 -0.007280 
#    y -0.047280 2.005700 0.004790 
#    z -0.007280 0.004790 1.977380 
# 
# From -- ./inp_files/576717.got.cif
#   From: 2010.05.17/outbox.cif.g08.bks.cpg/sg2_289_cif.got.tgz:576717.got - 2010.06.03 11:33:40.
