data_PCOD9003358
_publ_section_title
;
Structure prediction by ZEFSAII (Michael W. Deem and Ramdas Pophale) SiO2 
 PCOD9003358
Probable space group: P -1
;
_chemical_formula_sum "Si O2"
_cell_formula_units_Z 14
_cell_length_a 10.857472
_cell_length_b 7.854107
_cell_length_c 11.817112
_cell_angle_alpha 130.002161
_cell_angle_beta 110.988787
_cell_angle_gamma 89.655430
_cell_volume 684.372543
_symmetry_space_group_name_H-M "P -1"
_symmetry_group_IT_number 2
_symmetry_cell_setting 'triclinic'
loop_
_space_group_symop_operation_xyz
x,y,z
-x,-y,-z
loop_
_atom_site_type_symbol
_atom_site_label
_atom_site_fract_x
_atom_site_fract_y
_atom_site_fract_z
Si Si1 0.750289 0.768683 0.288769
Si Si2 0.508774 0.793595 0.073868
Si Si3 0.470769 0.705780 0.759908
Si Si4 0.931266 0.214484 0.409998
Si Si5 0.100398 0.610895 0.761514
Si Si6 0.728541 0.030514 0.867216
Si Si7 0.242330 0.215403 0.454767
O O1 0.811304 0.558266 0.245060
O O2 0.723682 0.863477 0.443287
O O3 0.860750 0.969398 0.340744
O O4 0.611894 0.699847 0.139961
O O5 0.580336 0.075059 0.198348
O O6 0.371569 0.805481 0.098845
O O7 0.479802 0.698689 0.896075
O O8 0.628802 0.800089 0.802538
O O9 0.363341 0.462966 0.579647
O O10 0.859967 0.265404 0.294391
O O11 0.952691 0.419534 0.599218
O O12 0.086370 0.227438 0.424973
O O13 0.136327 0.818857 0.953481
O O14 0.759322 0.953576 0.721711
#
# Coordination Sequence:
#
# PCOD9003358 Si02
#       7
#     2   2   2   2   2   2   2
#     4  11  23  39  61  90 115 156 199 246 282 349
#     4   9  20  36  63  84 121 141 201 242 287 337
#     4   9  20  38  61  91 115 153 193 247 285 354
#     4  10  23  40  61  88 115 155 204 249 273 348
#     4  10  21  38  65  83 116 155 199 239 296 330
#     4  10  21  37  59  91 121 152 192 241 292 369
#     4  11  22  37  60  86 125 157 191 234 309 339
#
# _framework density 20.456693999999999
#
# number of rings (size 3 to 8) (size 9 to 14) (size 15 to 20)
#    0.857    1.143    0.000    4.714    6.000    3.429 
#    0.000    2.857    3.143    0.000    0.000    0.000 
#    0.000    0.000    0.000    0.000    0.000    0.000 
#
# Total GULP energy -77940.120049 kJ/mol
# GULP energy per Si atom -5567.151432 kJ/mol
# Density = 2.041013 g / cm^3
# Si number density = 20.456694 Si / 1000 Ang^3
#
#
#
# Elastic Constant Matrix: (Units=GPa)
#
#
# Indices 1 2 3 4 5 6 
#
# 1 31.6256 29.6905 34.4811 4.3954 -2.5268 8.4648
# 2 29.6905 122.0939 57.0383 -10.5102 6.1263 -6.2797
# 3 34.4811 57.0383 175.0041 -8.6187 -8.1212 8.1660
# 4 4.3954 -10.5102 -8.6187 20.7220 9.4383 9.2448
# 5 -2.5268 6.1263 -8.1212 9.4383 23.0731 -6.3965
# 6 8.4648 -6.2797 8.1660 9.2448 -6.3965 26.3924
#
#
#
# Elastic Compliance Matrix: (Units=1/GPa)
#
#
# Indices 1 2 3 4 5 6 
#
# 1 0.061164 -0.015188 -0.007405 -0.029404 0.018442 -0.006170
# 2 -0.015188 0.014586 -0.001600 0.015275 -0.012201 0.000529
# 3 -0.007405 -0.001600 0.008059 0.005460 -0.000484 -0.002529
# 4 -0.029404 0.015275 0.005460 0.112971 -0.063660 -0.043625
# 5 0.018442 -0.012201 -0.000484 -0.063660 0.083885 0.033961
# 6 -0.006170 0.000529 -0.002529 -0.043625 0.033961 0.064289
#
#
# Mechanical properties :
#
#
# Convention : Reuss Voigt Hill
#
# Bulk Modulus (GPa) = 28.23092 63.46037 45.84564
# Shear Modulus (GPa) = 12.34118 27.87176 20.10647
#
# Velocity S-wave (km/s) = 2.45885 3.69518 3.13849
# Velocity P-wave (km/s) = 4.67884 7.02104 5.96601
#
# Compressibility (1/GPa) = 0.03542215
#
# Stress axis : x y z
#
# Youngs Moduli (GPa) = 16.34944 68.56094 124.08298
#
# Poissons Ratio (x) = 1.04131 0.91888
# Poissons Ratio (y) = 0.24832 0.19852
# Poissons Ratio (z) = 0.12107 0.10969
#
# Static dielectric constant tensor:
#      x y z
#    x 1.758300 -0.006430 0.045820 
#    y -0.006430 1.755510 0.043070 
#    z 0.045820 0.043070 1.787850 
# 
# From -- ./inp_files/443601.got.cif
#   From: 2010.05.17/outbox.cif.g08.bks.cpg/sg2_222_cif.got.tgz:443601.got - 2010.06.03 11:33:40.
