data_PCOD9003572
_publ_section_title
;
Structure prediction by ZEFSAII (Michael W. Deem and Ramdas Pophale) SiO2 
 PCOD9003572
Probable space group: P -1
;
_chemical_formula_sum "Si O2"
_cell_formula_units_Z 14
_cell_length_a 23.792341
_cell_length_b 11.341454
_cell_length_c 8.695252
_cell_angle_alpha 53.743568
_cell_angle_beta 44.554889
_cell_angle_gamma 23.726275
_cell_volume 646.740272
_symmetry_space_group_name_H-M "P -1"
_symmetry_group_IT_number 2
_symmetry_cell_setting 'triclinic'
loop_
_space_group_symop_operation_xyz
x,y,z
-x,-y,-z
loop_
_atom_site_type_symbol
_atom_site_label
_atom_site_fract_x
_atom_site_fract_y
_atom_site_fract_z
Si Si1 0.673719 0.478258 0.810265
Si Si2 0.325571 0.705968 0.316846
Si Si3 0.114458 0.115377 0.158655
Si Si4 0.763607 0.625719 0.346987
Si Si5 0.835785 0.297487 0.186427
Si Si6 0.627028 0.121093 0.339486
Si Si7 0.535202 0.781633 0.160803
O O1 0.585654 0.511016 0.836534
O O2 0.691268 0.609749 0.602919
O O3 0.848806 0.116323 0.758573
O O4 0.589852 0.611482 0.033573
O O5 0.202638 0.780437 0.570376
O O6 0.203787 0.010995 0.228521
O O7 0.470500 0.475428 0.336597
O O8 0.922167 0.439664 0.267813
O O9 0.213592 0.040201 0.890274
O O10 0.823977 0.457438 0.199018
O O11 0.634278 0.964430 0.336361
O O12 0.686202 0.549624 0.164093
O O13 0.000000 0.000000 0.000000
O O14 0.605436 0.082548 0.578413
O O15 0.500000 0.000000 0.000000
#
# Coordination Sequence:
#
# PCOD9003572 Si02
#       7
#     2   2   2   2   2   2   2
#     4   9  20  36  61  80 111 148 192 219 282 328
#     4   8  21  36  60  80 114 148 187 227 278 333
#     4  10  21  37  61  81 113 154 187 224 280 341
#     4  11  21  37  60  83 114 148 189 233 275 332
#     4  10  22  35  58  86 111 144 192 235 273 329
#     4  11  22  37  58  87 115 146 188 231 282 331
#     4  11  22  36  58  87 115 145 185 239 278 324
#
# _framework density 21.647019
#
# number of rings (size 3 to 8) (size 9 to 14) (size 15 to 20)
#    0.857    1.143    1.429    2.143    4.000    2.286 
#    0.000    0.000    0.000    1.714    0.000    0.000 
#    0.000    0.000    0.000    0.000    0.000    0.000 
#
# Total GULP energy -77952.762909 kJ/mol
# GULP energy per Si atom -5568.054494 kJ/mol
# Density = 2.159775 g / cm^3
# Si number density = 21.647019 Si / 1000 Ang^3
#
#
#
# Elastic Constant Matrix: (Units=GPa)
#
#
# Indices 1 2 3 4 5 6 
#
# 1 46.4299 13.3925 31.7998 -1.8461 6.8626 3.7875
# 2 13.3925 74.1440 32.2361 -11.8303 1.7296 -0.9923
# 3 31.7998 32.2361 117.0388 -18.0577 9.0218 -4.7164
# 4 -1.8461 -11.8303 -18.0577 26.8579 2.2903 7.0717
# 5 6.8626 1.7296 9.0218 2.2903 38.2895 4.0945
# 6 3.7875 -0.9923 -4.7164 7.0717 4.0945 18.8741
#
#
#
# Elastic Compliance Matrix: (Units=1/GPa)
#
#
# Indices 1 2 3 4 5 6 
#
# 1 0.028028 -0.002217 -0.007410 -0.002181 -0.002377 -0.006260
# 2 -0.002217 0.016036 -0.003091 0.005204 0.000249 -0.001488
# 3 -0.007410 -0.003091 0.012623 0.006100 -0.002156 0.002661
# 4 -0.002181 0.005204 0.006100 0.047660 -0.002520 -0.015075
# 5 -0.002377 0.000249 -0.002156 -0.002520 0.027738 -0.005122
# 6 -0.006260 -0.001488 0.002661 -0.015075 -0.005122 0.061585
#
#
# Mechanical properties :
#
#
# Convention : Reuss Voigt Hill
#
# Bulk Modulus (GPa) = 31.99879 43.60772 37.80326
# Shear Modulus (GPa) = 21.78422 27.48324 24.63373
#
# Velocity S-wave (km/s) = 3.17572 3.56702 3.37705
# Velocity P-wave (km/s) = 5.31612 6.09537 5.71903
#
# Compressibility (1/GPa) = 0.03125118
#
# Stress axis : x y z
#
# Youngs Moduli (GPa) = 35.67878 62.35932 79.21837
#
# Poissons Ratio (x) = 0.13827 0.58702
# Poissons Ratio (y) = 0.07911 0.24484
# Poissons Ratio (z) = 0.26438 0.19273
#
# Static dielectric constant tensor:
#      x y z
#    x 1.842000 -0.018230 -0.003660 
#    y -0.018230 1.837970 -0.014500 
#    z -0.003660 -0.014500 1.797120 
# 
# From -- ./inp_files/358747.got.cif
#   From: 2010.05.17/outbox.cif.g08.bks.cpg/sg2_180_cif.got.tgz:358747.got - 2010.06.03 11:33:40.
