data_PCOD9003922
_publ_section_title
;
Structure prediction by ZEFSAII (Michael W. Deem and Ramdas Pophale) SiO2 
 PCOD9003922
Probable space group: P -1
;
_chemical_formula_sum "Si O2"
_cell_formula_units_Z 14
_cell_length_a 5.294417
_cell_length_b 13.512879
_cell_length_c 14.019581
_cell_angle_alpha 40.449706
_cell_angle_beta 112.360577
_cell_angle_gamma 121.684966
_cell_volume 553.398027
_symmetry_space_group_name_H-M "P -1"
_symmetry_group_IT_number 2
_symmetry_cell_setting 'triclinic'
loop_
_space_group_symop_operation_xyz
x,y,z
-x,-y,-z
loop_
_atom_site_type_symbol
_atom_site_label
_atom_site_fract_x
_atom_site_fract_y
_atom_site_fract_z
Si Si1 0.557191 0.223163 0.041664
Si Si2 0.129810 0.917890 0.301265
Si Si3 0.883967 0.103318 0.015189
Si Si4 0.212930 0.451478 0.245392
Si Si5 0.851613 0.093181 0.476506
Si Si6 0.738380 0.336274 0.708778
Si Si7 0.670371 0.383054 0.468444
O O1 0.234017 0.206121 0.965871
O O2 0.729154 0.420970 0.926635
O O3 0.763631 0.164328 0.046804
O O4 0.427086 0.088187 0.205209
O O5 0.017176 0.912704 0.395182
O O6 0.212301 0.761759 0.418578
O O7 0.911390 0.933788 0.175663
O O8 0.710121 0.151708 0.870239
O O9 0.251927 0.562852 0.266285
O O10 0.457349 0.376165 0.355745
O O11 0.923270 0.284835 0.319978
O O12 0.500000 0.000000 0.500000
O O13 0.000000 0.000000 0.500000
O O14 0.541487 0.352540 0.580396
O O15 0.064622 0.438343 0.636936
#
# Coordination Sequence:
#
# PCOD9003922 Si02
#       7
#     2   2   2   2   2   2   2
#     4   9  21  38  69  86 131 181 217 253 342 382
#     4  10  23  42  66  96 137 174 217 278 332 381
#     4   9  20  39  60  93 134 183 208 265 319 391
#     4  11  22  44  65  95 139 180 214 284 331 383
#     4  12  28  44  71 100 127 166 229 283 342 397
#     4  10  21  37  63 101 137 178 230 250 329 398
#     4  11  20  36  67 100 135 184 217 270 315 401
#
# _framework density 25.298244
#
# number of rings (size 3 to 8) (size 9 to 14) (size 15 to 20)
#    0.857    0.857    2.857    1.286    4.000    0.571 
#    0.000    4.286    0.000    0.000    0.000    0.000 
#    0.000    0.000    0.000    0.000    0.000    0.000 
#
# Total GULP energy -78108.667773 kJ/mol
# GULP energy per Si atom -5579.190555 kJ/mol
# Density = 2.524066 g / cm^3
# Si number density = 25.298244 Si / 1000 Ang^3
#
#
#
# Elastic Constant Matrix: (Units=GPa)
#
#
# Indices 1 2 3 4 5 6 
#
# 1 112.4559 32.8000 25.7489 -12.4894 7.7404 -14.9292
# 2 32.8000 83.5801 34.1206 -18.3884 0.9021 -6.5241
# 3 25.7489 34.1206 171.8371 -41.8767 2.3830 -19.7360
# 4 -12.4894 -18.3884 -41.8767 31.6570 -0.2712 -2.3636
# 5 7.7404 0.9021 2.3830 -0.2712 43.2732 -1.0345
# 6 -14.9292 -6.5241 -19.7360 -2.3636 -1.0345 44.5540
#
#
#
# Elastic Compliance Matrix: (Units=1/GPa)
#
#
# Indices 1 2 3 4 5 6 
#
# 1 0.010699 -0.003395 0.000103 0.002611 -0.001755 0.003231
# 2 -0.003395 0.015127 -0.000799 0.006474 0.000402 0.001076
# 3 0.000103 -0.000799 0.009602 0.012636 -0.000336 0.004833
# 4 0.002611 0.006474 0.012636 0.053854 -0.000715 0.010261
# 5 -0.001755 0.000402 -0.000336 -0.000715 0.023424 -0.000172
# 6 0.003231 0.001076 0.004833 0.010261 -0.000172 0.026366
#
#
# Mechanical properties :
#
#
# Convention : Reuss Voigt Hill
#
# Bulk Modulus (GPa) = 36.70416 61.46802 49.08609
# Shear Modulus (GPa) = 31.98209 42.24374 37.11292
#
# Velocity S-wave (km/s) = 3.55942 4.09079 3.83432
# Velocity P-wave (km/s) = 5.60649 6.83102 6.24882
#
# Compressibility (1/GPa) = 0.02724487
#
# Stress axis : x y z
#
# Youngs Moduli (GPa) = 93.46863 66.10626 104.14571
#
# Poissons Ratio (x) = 0.22443 -0.01069
# Poissons Ratio (y) = 0.31732 0.08324
# Poissons Ratio (z) = -0.00960 0.05283
#
# Static dielectric constant tensor:
#      x y z
#    x 2.057870 0.069140 -0.028650 
#    y 0.069140 2.109090 0.007530 
#    z -0.028650 0.007530 2.028730 
# 
# From -- ./inp_files/484278.got.cif
#   From: 2010.05.17/outbox.cif.g08.bks.cpg/sg2_243_cif.got.tgz:484278.got - 2010.06.03 11:33:40.
