data_PCOD9003985
_publ_section_title
;
Structure prediction by ZEFSAII (Michael W. Deem and Ramdas Pophale) SiO2 
 PCOD9003985
Probable space group: P -1
;
_chemical_formula_sum "Si O2"
_cell_formula_units_Z 12
_cell_length_a 10.606866
_cell_length_b 11.512143
_cell_length_c 8.394751
_cell_angle_alpha 108.307049
_cell_angle_beta 81.147822
_cell_angle_gamma 146.103111
_cell_volume 531.579879
_symmetry_space_group_name_H-M "P -1"
_symmetry_group_IT_number 2
_symmetry_cell_setting 'triclinic'
loop_
_space_group_symop_operation_xyz
x,y,z
-x,-y,-z
loop_
_atom_site_type_symbol
_atom_site_label
_atom_site_fract_x
_atom_site_fract_y
_atom_site_fract_z
Si Si1 0.233831 0.270473 0.389746
Si Si2 0.209308 0.043119 0.517109
Si Si3 0.198880 0.520482 0.840326
Si Si4 0.637437 0.222816 0.412819
Si Si5 0.453502 0.466753 0.813414
Si Si6 0.725479 0.257817 0.763978
O O1 0.500000 0.500000 0.500000
O O2 0.157332 0.076246 0.379430
O O3 0.289026 0.326294 0.221486
O O4 0.027951 0.190981 0.457973
O O5 0.410844 0.114166 0.467365
O O6 0.320737 0.237996 0.689203
O O7 0.281857 0.654892 0.718307
O O8 0.311265 0.475711 0.800914
O O9 0.921474 0.314691 0.797953
O O10 0.265899 0.637891 0.047758
O O11 0.781075 0.340170 0.602974
O O12 0.532021 0.004558 0.304570
O O13 0.500000 0.500000 0.000000
#
# Coordination Sequence:
#
# PCOD9003985 Si02
#       6
#     2   2   2   2   2   2
#     4   9  20  37  58  89 120 157 202 251 312 377
#     4  10  21  37  63  92 120 160 208 253 322 382
#     4  11  23  43  64  89 133 169 209 265 318 375
#     4  11  22  42  68  90 127 165 217 265 317 376
#     4  11  23  38  61  95 131 163 205 260 324 387
#     4  10  25  41  63  96 121 169 222 260 311 378
#
# _framework density 22.574218999999999
#
# number of rings (size 3 to 8) (size 9 to 14) (size 15 to 20)
#    0.000    1.667    1.667    2.000    7.000    0.667 
#    0.000    8.333    0.000    0.000    0.000    0.000 
#    0.000    0.000    0.000    0.000    0.000    0.000 
#
# Total GULP energy -66848.414254 kJ/mol
# GULP energy per Si atom -5570.701188 kJ/mol
# Density = 2.252284 g / cm^3
# Si number density = 22.574219 Si / 1000 Ang^3
#
#
#
# Elastic Constant Matrix: (Units=GPa)
#
#
# Indices 1 2 3 4 5 6 
#
# 1 40.8980 3.0655 22.3824 7.1785 -7.8104 21.6101
# 2 3.0655 92.8599 57.2638 -22.2202 1.9353 10.7525
# 3 22.3824 57.2638 167.3466 -11.6095 8.4727 -8.2392
# 4 7.1785 -22.2202 -11.6095 37.1127 -7.0421 -3.4298
# 5 -7.8104 1.9353 8.4727 -7.0421 32.9624 -8.9228
# 6 21.6101 10.7525 -8.2392 -3.4298 -8.9228 35.8768
#
#
#
# Elastic Compliance Matrix: (Units=1/GPa)
#
#
# Indices 1 2 3 4 5 6 
#
# 1 0.053538 0.007169 -0.012506 -0.013016 0.002437 -0.037907
# 2 0.007169 0.017562 -0.007104 0.006136 0.000995 -0.010379
# 3 -0.012506 -0.007104 0.010916 0.002387 -0.001594 0.012001
# 4 -0.013016 0.006136 0.002387 0.036269 0.006864 0.011724
# 5 0.002437 0.000995 -0.001594 0.006864 0.034667 0.007146
# 6 -0.037907 -0.010379 0.012001 0.011724 0.007146 0.059471
#
#
# Mechanical properties :
#
#
# Convention : Reuss Voigt Hill
#
# Bulk Modulus (GPa) = 17.50296 51.83644 34.66970
# Shear Modulus (GPa) = 19.50446 35.74991 27.62718
#
# Velocity S-wave (km/s) = 2.94260 3.98384 3.50213
# Velocity P-wave (km/s) = 4.39495 6.64634 5.63424
#
# Compressibility (1/GPa) = 0.05713319
#
# Stress axis : x y z
#
# Youngs Moduli (GPa) = 18.67838 56.93960 91.60479
#
# Poissons Ratio (x) = -0.40819 1.14565
# Poissons Ratio (y) = -0.13390 0.65078
# Poissons Ratio (z) = 0.23360 0.40451
#
# Static dielectric constant tensor:
#      x y z
#    x 1.933510 0.023840 -0.018000 
#    y 0.023840 1.912300 -0.043930 
#    z -0.018000 -0.043930 1.970150 
# 
# From -- ./inp_files/259504.got.cif
#   From: 2010.05.17/outbox.cif.g08.bks.cpg/sg2_130_cif.got.tgz:259504.got - 2010.06.03 11:33:40.
