data_PCOD9003087
_publ_section_title
;
Structure prediction by ZEFSAII (Michael W. Deem and Ramdas Pophale) SiO2 
 PCOD9003087
Probable space group: P -1
;
_chemical_formula_sum "Si O2"
_cell_formula_units_Z 16
_cell_length_a 21.155038
_cell_length_b 11.937439
_cell_length_c 5.587652
_cell_angle_alpha 104.567316
_cell_angle_beta 83.391667
_cell_angle_gamma 40.679089
_cell_volume 778.614877
_symmetry_space_group_name_H-M "P -1"
_symmetry_group_IT_number 2
_symmetry_cell_setting 'triclinic'
loop_
_space_group_symop_operation_xyz
x,y,z
-x,-y,-z
loop_
_atom_site_type_symbol
_atom_site_label
_atom_site_fract_x
_atom_site_fract_y
_atom_site_fract_z
Si Si1 0.015241 0.584749 0.822800
Si Si2 0.906756 0.922668 0.408708
Si Si3 0.826503 0.702312 0.000785
Si Si4 0.498169 0.365911 0.896100
Si Si5 0.869905 0.183680 0.221962
Si Si6 0.722791 0.250556 0.997667
Si Si7 0.622960 0.172453 0.228788
Si Si8 0.881126 0.395255 0.576168
O O1 0.130447 0.374859 0.785816
O O2 0.940080 0.763438 0.149890
O O3 0.937127 0.596293 0.784013
O O4 0.045413 0.638234 0.654423
O O5 0.860009 0.097692 0.373215
O O6 0.809627 0.041032 0.701752
O O7 0.024368 0.792116 0.388473
O O8 0.808659 0.599306 0.852975
O O9 0.727646 0.933581 0.100193
O O10 0.367258 0.545742 0.010708
O O11 0.555773 0.259001 0.554816
O O12 0.500000 0.500000 0.000000
O O13 0.556702 0.235145 0.046078
O O14 0.798100 0.238252 0.070668
O O15 0.829463 0.366174 0.441280
O O16 0.000000 0.000000 0.000000
O O17 0.662659 0.247532 0.202743
#
# Coordination Sequence:
#
# PCOD9003087 Si02
#       8
#     2   2   2   2   2   2   2   2
#     4  10  21  37  57  88 126 159 209 249 314 382
#     4  11  21  35  60  87 126 162 203 250 318 374
#     4  10  23  35  61  87 122 167 203 259 308 377
#     4  10  24  42  66  97 128 159 214 267 325 377
#     4  12  23  37  58  88 127 168 204 253 314 379
#     4  11  24  37  64  92 126 162 201 264 321 375
#     4  11  24  43  67  96 129 165 209 267 324 375
#     4  11  22  38  53  86 125 164 208 248 301 387
#
# _framework density 20.549309000000001
#
# number of rings (size 3 to 8) (size 9 to 14) (size 15 to 20)
#    0.000    1.250    2.500    3.750   10.500    1.000 
#    0.000    0.000    0.000    1.500    0.000    0.000 
#    0.000    0.000    0.000    0.000    0.000    0.000 
#
# Total GULP energy -89198.225503 kJ/mol
# GULP energy per Si atom -5574.889094 kJ/mol
# Density = 2.050254 g / cm^3
# Si number density = 20.549309 Si / 1000 Ang^3
#
#
#
# Elastic Constant Matrix: (Units=GPa)
#
#
# Indices 1 2 3 4 5 6 
#
# 1 83.7055 33.7673 8.8089 3.5073 19.6144 -14.2629
# 2 33.7673 137.4124 33.6367 10.4117 14.3971 -23.1103
# 3 8.8089 33.6367 64.0839 0.8712 10.4569 -14.3355
# 4 3.5073 10.4117 0.8712 18.5205 3.0900 2.9531
# 5 19.6144 14.3971 10.4569 3.0900 19.2957 1.2154
# 6 -14.2629 -23.1103 -14.3355 2.9531 1.2154 30.9021
#
#
#
# Elastic Compliance Matrix: (Units=1/GPa)
#
#
# Indices 1 2 3 4 5 6 
#
# 1 0.018756 -0.001640 0.003898 -0.001021 -0.020430 0.010140
# 2 -0.001640 0.010317 -0.003096 -0.005696 -0.003832 0.006217
# 3 0.003898 -0.003096 0.021123 0.000762 -0.013836 0.009754
# 4 -0.001021 -0.005696 0.000762 0.059610 -0.004046 -0.009915
# 5 -0.020430 -0.003832 -0.013836 -0.004046 0.084963 -0.021669
# 6 0.010140 0.006217 0.009754 -0.009915 -0.021669 0.048015
#
#
# Mechanical properties :
#
#
# Convention : Reuss Voigt Hill
#
# Bulk Modulus (GPa) = 20.60992 48.62528 34.61760
# Shear Modulus (GPa) = 19.18409 27.67624 23.43017
#
# Velocity S-wave (km/s) = 3.05874 3.67389 3.38034
# Velocity P-wave (km/s) = 4.74614 6.45838 5.66730
#
# Compressibility (1/GPa) = 0.04852034
#
# Stress axis : x y z
#
# Youngs Moduli (GPa) = 53.31698 96.92708 47.34127
#
# Poissons Ratio (x) = 0.15897 -0.18456
# Poissons Ratio (y) = 0.08744 0.14658
# Poissons Ratio (z) = -0.20785 0.30011
#
# Static dielectric constant tensor:
#      x y z
#    x 1.692320 0.008380 0.031340 
#    y 0.008380 1.735410 -0.052290 
#    z 0.031340 -0.052290 1.865650 
# 
# From -- ./inp_files/76417.got.cif
#   From: 2010.05.17/outbox.cif.g08.bks.cpg/sg2_39_cif.got.tgz:76417.got - 2010.06.03 11:33:40.
