data_PCOD9003560
_publ_section_title
;
Structure prediction by ZEFSAII (Michael W. Deem and Ramdas Pophale) SiO2 
 PCOD9003560
Probable space group: P -1
;
_chemical_formula_sum "Si O2"
_cell_formula_units_Z 15
_cell_length_a 25.874361
_cell_length_b 5.513311
_cell_length_c 6.586706
_cell_angle_alpha 128.889257
_cell_angle_beta 121.928488
_cell_angle_gamma 57.172690
_cell_volume 588.488163
_symmetry_space_group_name_H-M "P -1"
_symmetry_group_IT_number 2
_symmetry_cell_setting 'triclinic'
loop_
_space_group_symop_operation_xyz
x,y,z
-x,-y,-z
loop_
_atom_site_type_symbol
_atom_site_label
_atom_site_fract_x
_atom_site_fract_y
_atom_site_fract_z
Si Si1 0.435286 0.916195 0.385911
Si Si2 0.179442 0.684933 0.562206
Si Si3 0.324905 0.454483 0.209072
Si Si4 0.791518 0.747983 0.242711
Si Si5 0.056358 0.090520 0.779569
Si Si6 0.613086 0.019449 0.245747
Si Si7 0.500000 0.500000 0.000000
Si Si8 0.906420 0.359360 0.020380
O O1 0.427360 0.978606 0.637622
O O2 0.500000 0.000000 0.500000
O O3 0.370929 0.168690 0.295163
O O4 0.458797 0.549554 0.160468
O O5 0.207656 0.342967 0.564590
O O6 0.126069 0.898109 0.722699
O O7 0.227627 0.880669 0.689976
O O8 0.141365 0.663358 0.268657
O O9 0.338091 0.784682 0.477334
O O10 0.253088 0.441363 0.053453
O O11 0.350174 0.322201 0.966628
O O12 0.863755 0.598284 0.230222
O O13 0.062022 0.970075 0.960383
O O14 0.048557 0.464041 0.903256
O O15 0.000000 0.000000 0.500000
O O16 0.563850 0.247754 0.103403
#
# Coordination Sequence:
#
# PCOD9003560 Si02
#       8
#     2   2   2   2   2   2   1   2
#     4  11  24  42  67  93 130 168 212 269 343 407
#     4  10  22  41  64  91 128 176 219 268 333 393
#     4  11  27  43  64 100 125 175 219 282 334 405
#     4  10  24  42  63  92 127 169 224 274 327 397
#     4  10  21  37  60  98 131 167 218 272 321 396
#     4  11  26  43  67  96 131 164 222 268 346 404
#     4  10  22  42  64  90 126 168 202 264 330 410
#     4  10  21  39  64  88 131 173 217 265 334 387
#
# _framework density 25.489044
#
# number of rings (size 3 to 8) (size 9 to 14) (size 15 to 20)
#    0.000    1.600    1.333    1.600    5.600    3.200 
#    0.000    0.000    0.000    0.000    0.000    0.000 
#    0.000    0.000    0.000    0.000    0.000    0.000 
#
# Total GULP energy -83586.601023 kJ/mol
# GULP energy per Si atom -5572.440068 kJ/mol
# Density = 2.543103 g / cm^3
# Si number density = 25.489044 Si / 1000 Ang^3
#
#
#
# Elastic Constant Matrix: (Units=GPa)
#
#
# Indices 1 2 3 4 5 6 
#
# 1 94.2763 62.1873 20.5868 -7.9285 9.0210 25.3405
# 2 62.1873 112.5536 37.2738 -29.3307 -10.0724 24.9278
# 3 20.5868 37.2738 93.7862 -20.7750 6.4215 22.2415
# 4 -7.9285 -29.3307 -20.7750 39.2578 4.0324 -9.0508
# 5 9.0210 -10.0724 6.4215 4.0324 51.4076 5.7837
# 6 25.3405 24.9278 22.2415 -9.0508 5.7837 50.2752
#
#
#
# Elastic Compliance Matrix: (Units=1/GPa)
#
#
# Indices 1 2 3 4 5 6 
#
# 1 0.019471 -0.011701 0.000707 -0.005010 -0.004880 -0.004666
# 2 -0.011701 0.019783 -0.003178 0.009828 0.005712 -0.001393
# 3 0.000707 -0.003178 0.013826 0.004450 -0.002393 -0.003821
# 4 -0.005010 0.009828 0.004450 0.034693 -0.000699 0.002010
# 5 -0.004880 0.005712 -0.002393 -0.000699 0.022003 -0.001971
# 6 -0.004666 -0.001393 -0.003821 0.002010 -0.001971 0.025212
#
#
# Mechanical properties :
#
#
# Convention : Reuss Voigt Hill
#
# Bulk Modulus (GPa) = 40.42587 60.07910 50.25249
# Shear Modulus (GPa) = 29.14164 40.22599 34.68382
#
# Velocity S-wave (km/s) = 3.38494 3.97693 3.69282
# Velocity P-wave (km/s) = 5.58316 6.68653 6.15960
#
# Compressibility (1/GPa) = 0.02473663
#
# Stress axis : x y z
#
# Youngs Moduli (GPa) = 51.35963 50.54966 72.32745
#
# Poissons Ratio (x) = 0.59147 -0.05115
# Poissons Ratio (y) = 0.60095 0.22983
# Poissons Ratio (z) = -0.03632 0.16062
#
# Static dielectric constant tensor:
#      x y z
#    x 2.158560 -0.103120 -0.573400 
#    y -0.103120 2.033510 0.297430 
#    z -0.573400 0.297430 3.341350 
# 
# From -- ./inp_files/9644.got.cif
#   From: 2010.05.17/outbox.cif.g08.bks.cpg/sg2_5_cif.got.tgz:9644.got - 2010.06.03 11:33:40.
