data_PCOD9003295
_publ_section_title
;
Structure prediction by ZEFSAII (Michael W. Deem and Ramdas Pophale) SiO2 
 PCOD9003295
Probable space group: P -1
;
_chemical_formula_sum "Si O2"
_cell_formula_units_Z 16
_cell_length_a 12.472975
_cell_length_b 8.268692
_cell_length_c 10.046873
_cell_angle_alpha 109.898874
_cell_angle_beta 60.569098
_cell_angle_gamma 64.655166
_cell_volume 582.741662
_symmetry_space_group_name_H-M "P -1"
_symmetry_group_IT_number 2
_symmetry_cell_setting 'triclinic'
loop_
_space_group_symop_operation_xyz
x,y,z
-x,-y,-z
loop_
_atom_site_type_symbol
_atom_site_label
_atom_site_fract_x
_atom_site_fract_y
_atom_site_fract_z
Si Si1 0.332616 0.888962 0.031715
Si Si2 0.174042 0.764081 0.248506
Si Si3 0.446679 0.584308 0.402357
Si Si4 0.776760 0.650319 0.851239
Si Si5 0.820073 0.681767 0.441051
Si Si6 0.005116 0.810386 0.873158
Si Si7 0.077070 0.149532 0.785292
Si Si8 0.457629 0.148016 0.703577
O O1 0.297108 0.803270 0.156355
O O2 0.320374 0.106506 0.108476
O O3 0.489762 0.645194 0.782154
O O4 0.154545 0.037602 0.090657
O O5 0.264279 0.508676 0.192621
O O6 0.087499 0.770992 0.169110
O O7 0.000000 0.000000 0.500000
O O8 0.500000 0.500000 0.500000
O O9 0.541517 0.654710 0.293258
O O10 0.238013 0.846432 0.599303
O O11 0.991955 0.455677 0.640879
O O12 0.710946 0.738176 0.070522
O O13 0.829783 0.464912 0.363828
O O14 0.853952 0.757348 0.308693
O O15 0.616978 0.948514 0.657074
O O16 0.965018 0.747113 0.013608
O O17 0.000000 0.000000 0.000000
O O18 0.500000 0.000000 0.500000
#
# Coordination Sequence:
#
# PCOD9003295 Si02
#       8
#     2   2   2   2   2   2   2   2
#     4  11  22  39  62  96 125 161 208 257 323 388
#     4  11  24  45  68  87 118 171 227 267 307 364
#     4  11  21  36  57  96 134 163 202 248 321 402
#     4  10  23  43  63  89 126 166 210 267 321 367
#     4   9  23  35  55  86 126 166 205 241 314 393
#     4  11  20  31  57  89 125 158 194 251 316 383
#     4  10  21  37  59  87 124 164 204 255 317 373
#     4  11  23  33  58  91 130 172 201 248 316 388
#
# _framework density 27.456419
#
# number of rings (size 3 to 8) (size 9 to 14) (size 15 to 20)
#    0.000    1.500    3.750    1.125   10.500    1.500 
#    0.000    0.625    0.000    0.750    0.000    0.000 
#    0.000    0.000    0.000    0.000    0.000    0.000 
#
# Total GULP energy -89444.736920 kJ/mol
# GULP energy per Si atom -5590.296058 kJ/mol
# Density = 2.739393 g / cm^3
# Si number density = 27.456419 Si / 1000 Ang^3
#
#
#
# Elastic Constant Matrix: (Units=GPa)
#
#
# Indices 1 2 3 4 5 6 
#
# 1 102.4631 65.3657 21.0602 9.2475 -10.1069 -1.1075
# 2 65.3657 192.3482 58.7678 29.2379 15.1516 24.5486
# 3 21.0602 58.7678 123.1541 13.7509 -10.1916 -5.7987
# 4 9.2475 29.2379 13.7509 56.1551 2.8229 4.3539
# 5 -10.1069 15.1516 -10.1916 2.8229 27.1384 0.9974
# 6 -1.1075 24.5486 -5.7987 4.3539 0.9974 30.0552
#
#
#
# Elastic Compliance Matrix: (Units=1/GPa)
#
#
# Indices 1 2 3 4 5 6 
#
# 1 0.015213 -0.007495 0.002179 -0.000187 0.010439 0.006784
# 2 -0.007495 0.012000 -0.005590 -0.002282 -0.010969 -0.010462
# 3 0.002179 -0.005590 0.011543 -0.001210 0.008144 0.006778
# 4 -0.000187 -0.002282 -0.001210 0.019475 -0.001233 -0.001156
# 5 0.010439 -0.010969 0.008144 -0.001233 0.049699 0.009444
# 6 0.006784 -0.010462 0.006778 -0.001156 0.009444 0.043229
#
#
# Mechanical properties :
#
#
# Convention : Reuss Voigt Hill
#
# Bulk Modulus (GPa) = 59.01747 78.70587 68.86167
# Shear Modulus (GPa) = 27.99242 40.85452 34.42347
#
# Velocity S-wave (km/s) = 3.19646 3.86162 3.54467
# Velocity P-wave (km/s) = 5.92999 6.97214 6.47207
#
# Compressibility (1/GPa) = 0.01694414
#
# Stress axis : x y z
#
# Youngs Moduli (GPa) = 65.73205 83.33250 86.63310
#
# Poissons Ratio (x) = 0.62462 -0.18881
# Poissons Ratio (y) = 0.49269 0.48428
# Poissons Ratio (z) = -0.14326 0.46583
#
# Static dielectric constant tensor:
#      x y z
#    x 2.202080 0.039510 -0.069500 
#    y 0.039510 2.258390 -0.002650 
#    z -0.069500 -0.002650 2.173960 
# 
# From -- ./inp_files/189372.got.cif
#   From: 2010.05.17/outbox.cif.g08.bks.cpg/sg2_95_cif.got.tgz:189372.got - 2010.06.03 11:33:40.
