data_PCOD9003676
_publ_section_title
;
Structure prediction by ZEFSAII (Michael W. Deem and Ramdas Pophale) SiO2 
 PCOD9003676
Probable space group: P -1
;
_chemical_formula_sum "Si O2"
_cell_formula_units_Z 16
_cell_length_a 11.132313
_cell_length_b 11.327597
_cell_length_c 9.042551
_cell_angle_alpha 137.593522
_cell_angle_beta 125.195590
_cell_angle_gamma 71.535232
_cell_volume 616.031748
_symmetry_space_group_name_H-M "P -1"
_symmetry_group_IT_number 2
_symmetry_cell_setting 'triclinic'
loop_
_space_group_symop_operation_xyz
x,y,z
-x,-y,-z
loop_
_atom_site_type_symbol
_atom_site_label
_atom_site_fract_x
_atom_site_fract_y
_atom_site_fract_z
Si Si1 0.041823 0.259919 0.794112
Si Si2 0.647226 0.345607 0.006500
Si Si3 0.878728 0.004654 0.644140
Si Si4 0.676544 0.717058 0.762585
Si Si5 0.642202 0.758216 0.441325
Si Si6 0.405295 0.706122 0.748052
Si Si7 0.021366 0.734228 0.814844
Si Si8 0.927888 0.367074 0.549694
O O1 0.061467 0.123746 0.548107
O O2 0.018548 0.414895 0.808395
O O3 0.185583 0.273339 0.014727
O O4 0.894440 0.178771 0.709681
O O5 0.665445 0.560573 0.224671
O O6 0.570032 0.271021 0.037760
O O7 0.808572 0.295035 0.070028
O O8 0.536571 0.263550 0.721768
O O9 0.729272 0.903042 0.523094
O O10 0.984607 0.093255 0.935575
O O11 0.695003 0.798422 0.684883
O O12 0.544991 0.790281 0.823930
O O13 0.617496 0.506986 0.493499
O O14 0.238482 0.742418 0.635012
O O15 0.998595 0.727554 0.617519
O O16 0.918234 0.556418 0.642833
#
# Coordination Sequence:
#
# PCOD9003676 Si02
#       8
#     2   2   2   2   2   2   2   2
#     4  11  25  41  60  90 128 164 200 251 312 367
#     4   9  19  39  65  91 120 160 207 256 305 362
#     4  11  25  40  60  89 124 162 206 254 310 365
#     4  10  21  37  61  92 124 162 204 249 304 364
#     4  10  21  39  65  91 122 164 208 253 304 366
#     4   9  19  37  62  93 121 152 206 260 302 355
#     4  10  22  40  65  93 121 159 209 257 305 363
#     4  10  22  42  66  92 124 162 206 255 304 364
#
# _framework density 25.972688000000002
#
# number of rings (size 3 to 8) (size 9 to 14) (size 15 to 20)
#    0.000    2.000    0.000    2.250    0.000   13.500 
#    0.000    0.000    0.000    6.750    0.000    0.000 
#    0.000    0.000    0.000    0.000    0.000    0.000 
#
# Total GULP energy -89403.505124 kJ/mol
# GULP energy per Si atom -5587.719070 kJ/mol
# Density = 2.591357 g / cm^3
# Si number density = 25.972688 Si / 1000 Ang^3
#
#
#
# Elastic Constant Matrix: (Units=GPa)
#
#
# Indices 1 2 3 4 5 6 
#
# 1 123.4881 40.5226 36.5078 -26.7606 17.1867 28.4994
# 2 40.5226 98.1816 43.5519 -34.5084 7.2789 32.1925
# 3 36.5078 43.5519 135.1109 -45.3712 -2.4266 6.6203
# 4 -26.7606 -34.5084 -45.3712 47.1605 -1.5170 -4.1079
# 5 17.1867 7.2789 -2.4266 -1.5170 50.0439 -4.2836
# 6 28.4994 32.1925 6.6203 -4.1079 -4.2836 37.5398
#
#
#
# Elastic Compliance Matrix: (Units=1/GPa)
#
#
# Indices 1 2 3 4 5 6 
#
# 1 0.012395 0.001153 -0.001514 0.005370 -0.005203 -0.010138
# 2 0.001153 0.021265 -0.002222 0.012364 -0.004755 -0.017909
# 3 -0.001514 -0.002222 0.011377 0.008713 0.001849 0.002213
# 4 0.005370 0.012364 0.008713 0.040526 -0.003029 -0.012127
# 5 -0.005203 -0.004755 0.001849 -0.003029 0.023317 0.010031
# 6 -0.010138 -0.017909 0.002213 -0.012127 0.010031 0.049120
#
#
# Mechanical properties :
#
#
# Convention : Reuss Voigt Hill
#
# Bulk Modulus (GPa) = 25.08138 66.43838 45.75988
# Shear Modulus (GPa) = 28.33531 42.69539 35.51535
#
# Velocity S-wave (km/s) = 3.30656 4.05885 3.70186
# Velocity P-wave (km/s) = 4.92500 6.89937 5.99403
#
# Compressibility (1/GPa) = 0.03987022
#
# Stress axis : x y z
#
# Youngs Moduli (GPa) = 80.68012 47.02471 87.89412
#
# Poissons Ratio (x) = -0.05422 0.13310
# Poissons Ratio (y) = -0.09303 0.19533
# Poissons Ratio (z) = 0.12218 0.10450
#
# Static dielectric constant tensor:
#      x y z
#    x 2.081900 -0.052460 -0.021740 
#    y -0.052460 2.195120 0.048250 
#    z -0.021740 0.048250 2.025290 
# 
# From -- ./inp_files/263592.got.cif
#   From: 2010.05.17/outbox.cif.g08.bks.cpg/sg2_132_cif.got.tgz:263592.got - 2010.06.03 11:33:40.
