data_PCOD9003013
_publ_section_title
;
Structure prediction by ZEFSAII (Michael W. Deem and Ramdas Pophale) SiO2 
 PCOD9003013
Probable space group: P -1
;
_chemical_formula_sum "Si O2"
_cell_formula_units_Z 16
_cell_length_a 12.149853
_cell_length_b 10.998619
_cell_length_c 13.154795
_cell_angle_alpha 147.319746
_cell_angle_beta 49.971944
_cell_angle_gamma 122.087295
_cell_volume 726.594138
_symmetry_space_group_name_H-M "P -1"
_symmetry_group_IT_number 2
_symmetry_cell_setting 'triclinic'
loop_
_space_group_symop_operation_xyz
x,y,z
-x,-y,-z
loop_
_atom_site_type_symbol
_atom_site_label
_atom_site_fract_x
_atom_site_fract_y
_atom_site_fract_z
Si Si1 0.072618 0.722470 0.653758
Si Si2 0.810906 0.317417 0.911253
Si Si3 0.090597 0.841062 0.958210
Si Si4 0.318344 0.139131 0.280693
Si Si5 0.422619 0.889203 0.758689
Si Si6 0.448476 0.652111 0.044771
Si Si7 0.630159 0.476365 0.625118
Si Si8 0.131812 0.385770 0.737583
O O1 0.041474 0.755616 0.815939
O O2 0.243174 0.681262 0.514661
O O3 0.000000 0.500000 0.500000
O O4 0.009958 0.950235 0.801025
O O5 0.979543 0.269358 0.760056
O O6 0.741462 0.109907 0.866497
O O7 0.720473 0.339118 0.875930
O O8 0.802183 0.543414 0.143720
O O9 0.253686 0.921728 0.902408
O O10 0.094233 0.626866 0.877645
O O11 0.485523 0.129115 0.205999
O O12 0.299660 0.305369 0.314349
O O13 0.236178 0.250578 0.504959
O O14 0.437825 0.663170 0.524429
O O15 0.489833 0.097985 0.806320
O O16 0.520868 0.553910 0.830121
O O17 0.500000 0.500000 0.000000
#
# Coordination Sequence:
#
# PCOD9003013 Si02
#       8
#     2   2   2   2   2   2   2   2
#     4  10  21  37  56  94 127 167 207 257 313 381
#     4  10  26  40  65  95 131 181 210 263 328 390
#     4  10  22  37  64  94 128 166 211 263 321 371
#     4  11  22  40  68 100 128 162 217 272 323 382
#     4  10  22  40  67  99 126 163 210 277 321 382
#     4  11  26  45  64  93 132 172 219 266 325 394
#     4  11  23  39  67  98 124 170 214 267 327 376
#     4  11  22  43  64  95 135 169 216 269 322 387
#
# _framework density 22.020547000000001
#
# number of rings (size 3 to 8) (size 9 to 14) (size 15 to 20)
#    0.000    1.500    2.500    2.250    5.250    5.500 
#    0.000    5.000    0.000    0.000    0.000    0.000 
#    0.000    0.000    0.000    0.000    0.000    0.000 
#
# Total GULP energy -89521.835400 kJ/mol
# GULP energy per Si atom -5595.114712 kJ/mol
# Density = 2.197043 g / cm^3
# Si number density = 22.020547 Si / 1000 Ang^3
#
#
#
# Elastic Constant Matrix: (Units=GPa)
#
#
# Indices 1 2 3 4 5 6 
#
# 1 100.0795 48.4880 25.8401 9.8635 4.2458 21.1189
# 2 48.4880 64.0866 10.5738 12.2794 0.3554 7.3592
# 3 25.8401 10.5738 79.7607 7.9718 4.9668 12.2476
# 4 9.8635 12.2794 7.9718 32.0003 -0.0381 -1.4960
# 5 4.2458 0.3554 4.9668 -0.0381 36.4938 4.7236
# 6 21.1189 7.3592 12.2476 -1.4960 4.7236 30.8167
#
#
#
# Elastic Compliance Matrix: (Units=1/GPa)
#
#
# Indices 1 2 3 4 5 6 
#
# 1 0.018769 -0.012598 -0.002994 -0.000608 -0.000540 -0.008611
# 2 -0.012598 0.025985 0.000960 -0.006251 0.000867 0.001610
# 3 -0.002994 0.000960 0.014365 -0.003206 -0.001118 -0.003871
# 4 -0.000608 -0.006251 -0.003206 0.034863 -0.000027 0.004881
# 5 -0.000540 0.000867 -0.001118 -0.000027 0.028087 -0.003699
# 6 -0.008611 0.001610 -0.003871 0.004881 -0.003699 0.040309
#
#
# Mechanical properties :
#
#
# Convention : Reuss Voigt Hill
#
# Bulk Modulus (GPa) = 33.49528 45.97006 39.73267
# Shear Modulus (GPa) = 24.80254 30.46383 27.63318
#
# Velocity S-wave (km/s) = 3.35973 3.72348 3.54627
# Velocity P-wave (km/s) = 5.50403 6.27750 5.90345
#
# Compressibility (1/GPa) = 0.02985496
#
# Stress axis : x y z
#
# Youngs Moduli (GPa) = 53.28045 38.48345 69.61554
#
# Poissons Ratio (x) = 0.48482 0.20841
# Poissons Ratio (y) = 0.67123 -0.06684
# Poissons Ratio (z) = 0.15951 -0.03695
#
# Static dielectric constant tensor:
#      x y z
#    x 1.844780 -0.006890 0.001220 
#    y -0.006890 1.772630 -0.009420 
#    z 0.001220 -0.009420 1.817220 
# 
# From -- ./inp_files/519340.got.cif
#   From: 2010.05.17/outbox.cif.g08.bks.cpg/sg2_260_cif.got.tgz:519340.got - 2010.06.03 11:33:40.
