data_PCOD9003500
_publ_section_title
;
Structure prediction by ZEFSAII (Michael W. Deem and Ramdas Pophale) SiO2 
 PCOD9003500
Probable space group: P -1
;
_chemical_formula_sum "Si O2"
_cell_formula_units_Z 14
_cell_length_a 8.831408
_cell_length_b 18.375746
_cell_length_c 5.351019
_cell_angle_alpha 61.378323
_cell_angle_beta 54.889029
_cell_angle_gamma 69.911833
_cell_volume 620.767641
_symmetry_space_group_name_H-M "P -1"
_symmetry_group_IT_number 2
_symmetry_cell_setting 'triclinic'
loop_
_space_group_symop_operation_xyz
x,y,z
-x,-y,-z
loop_
_atom_site_type_symbol
_atom_site_label
_atom_site_fract_x
_atom_site_fract_y
_atom_site_fract_z
Si Si1 0.611464 0.546852 0.606912
Si Si2 0.003147 0.944638 0.837996
Si Si3 0.709850 0.812701 0.268905
Si Si4 0.671739 0.198058 0.129957
Si Si5 0.036921 0.359837 0.722690
Si Si6 0.866190 0.427958 0.270822
Si Si7 0.580417 0.270675 0.593009
O O1 0.799930 0.576895 0.507893
O O2 0.676493 0.481804 0.434531
O O3 0.512784 0.635361 0.458085
O O4 0.500000 0.500000 0.000000
O O5 0.187750 0.880915 0.804996
O O6 0.827698 0.890515 0.058822
O O7 0.000000 0.000000 0.500000
O O8 0.000000 0.000000 0.000000
O O9 0.546702 0.817784 0.622782
O O10 0.855423 0.731141 0.264199
O O11 0.580748 0.793324 0.185263
O O12 0.699829 0.239205 0.768903
O O13 0.684377 0.260366 0.247015
O O14 0.926521 0.378781 0.543331
O O15 0.909245 0.375378 0.065339
O O16 0.000000 0.500000 0.000000
#
# Coordination Sequence:
#
# PCOD9003500 Si02
#       7
#     2   2   2   2   2   2   2
#     4  10  21  38  63  96 136 176 233 293 334 376
#     4  12  28  46  71 110 137 163 220 282 346 421
#     4   9  25  43  76  91 140 182 225 268 345 409
#     4  10  23  46  70  99 135 178 228 272 339 418
#     4  10  22  41  63  86 131 180 230 267 331 407
#     4  10  21  37  60  91 127 173 227 280 327 380
#     4   9  22  43  69  92 139 186 231 271 339 404
#
# _framework density 22.552723
#
# number of rings (size 3 to 8) (size 9 to 14) (size 15 to 20)
#    0.857    1.143    0.000    2.571    8.000    3.429 
#    0.000   15.714    0.000    0.000    0.000    0.000 
#    0.000    0.000    0.000    0.000    0.000    0.000 
#
# Total GULP energy -78162.593210 kJ/mol
# GULP energy per Si atom -5583.042372 kJ/mol
# Density = 2.250139 g / cm^3
# Si number density = 22.552723 Si / 1000 Ang^3
#
#
#
# Elastic Constant Matrix: (Units=GPa)
#
#
# Indices 1 2 3 4 5 6 
#
# 1 111.3868 79.1337 62.5814 4.6810 28.1960 7.2644
# 2 79.1337 128.7999 57.2745 3.0884 -1.1630 25.9523
# 3 62.5814 57.2745 146.9158 8.7975 15.4595 20.7596
# 4 4.6810 3.0884 8.7975 29.0203 5.2070 -16.0702
# 5 28.1960 -1.1630 15.4595 5.2070 55.0325 -8.2421
# 6 7.2644 25.9523 20.7596 -16.0702 -8.2421 43.5549
#
#
#
# Elastic Compliance Matrix: (Units=1/GPa)
#
#
# Indices 1 2 3 4 5 6 
#
# 1 0.023446 -0.013778 -0.004641 0.004374 -0.010494 0.006139
# 2 -0.013778 0.018514 -0.000331 -0.006154 0.006691 -0.009581
# 3 -0.004641 -0.000331 0.010197 -0.005524 -0.000884 -0.006095
# 4 0.004374 -0.006154 -0.005524 0.049411 -0.001986 0.023425
# 5 -0.010494 0.006691 -0.000884 -0.001986 0.024436 0.002076
# 6 0.006139 -0.009581 -0.006095 0.023425 0.002076 0.039585
#
#
# Mechanical properties :
#
#
# Convention : Reuss Voigt Hill
#
# Bulk Modulus (GPa) = 68.21874 87.23129 77.72502
# Shear Modulus (GPa) = 24.04132 38.06241 31.05186
#
# Velocity S-wave (km/s) = 3.26852 4.11263 3.71463
# Velocity P-wave (km/s) = 6.67521 7.83035 7.27574
#
# Compressibility (1/GPa) = 0.01465873
#
# Stress axis : x y z
#
# Youngs Moduli (GPa) = 42.65137 54.01204 98.06377
#
# Poissons Ratio (x) = 0.74417 0.45512
# Poissons Ratio (y) = 0.58764 0.03242
# Poissons Ratio (z) = 0.19795 0.01786
#
# Static dielectric constant tensor:
#      x y z
#    x 1.904680 -0.008200 -0.033010 
#    y -0.008200 1.802670 0.020380 
#    z -0.033010 0.020380 1.836670 
# 
# From -- ./inp_files/46538.got.cif
#   From: 2010.05.17/outbox.cif.g08.bks.cpg/sg2_24_cif.got.tgz:46538.got - 2010.06.03 11:33:40.
