data_PCOD9003365
_publ_section_title
;
Structure prediction by ZEFSAII (Michael W. Deem and Ramdas Pophale) SiO2 
 PCOD9003365
Probable space group: P -1
;
_chemical_formula_sum "Si O2"
_cell_formula_units_Z 16
_cell_length_a 6.613748
_cell_length_b 8.078582
_cell_length_c 24.667243
_cell_angle_alpha 31.406956
_cell_angle_beta 67.846873
_cell_angle_gamma 72.731958
_cell_volume 635.254173
_symmetry_space_group_name_H-M "P -1"
_symmetry_group_IT_number 2
_symmetry_cell_setting 'triclinic'
loop_
_space_group_symop_operation_xyz
x,y,z
-x,-y,-z
loop_
_atom_site_type_symbol
_atom_site_label
_atom_site_fract_x
_atom_site_fract_y
_atom_site_fract_z
Si Si1 0.276871 0.349759 0.042023
Si Si2 0.244041 0.373598 0.794326
Si Si3 0.925619 0.306237 0.382264
Si Si4 0.128839 0.829094 0.409853
Si Si5 0.899477 0.159272 0.246568
Si Si6 0.686477 0.262529 0.733819
Si Si7 0.959095 0.785096 0.992959
Si Si8 0.569306 0.626689 0.383036
O O1 0.141056 0.668011 0.964979
O O2 0.206468 0.069969 0.170063
O O3 0.500000 0.500000 0.000000
O O4 0.256589 0.197999 0.026669
O O5 0.136447 0.446020 0.727359
O O6 0.267919 0.707737 0.728884
O O7 0.484920 0.255935 0.797842
O O8 0.073112 0.111538 0.910259
O O9 0.704208 0.312680 0.440142
O O10 0.134877 0.457055 0.350881
O O11 0.013978 0.009196 0.421377
O O12 0.377192 0.712485 0.421732
O O13 0.000000 0.500000 0.500000
O O14 0.089530 0.050769 0.298662
O O15 0.934173 0.481188 0.118553
O O16 0.769260 0.876740 0.307352
O O17 0.567238 0.304233 0.677235
#
# Coordination Sequence:
#
# PCOD9003365 Si02
#       8
#     2   2   2   2   2   2   2   2
#     4  11  20  31  54  86 126 173 220 261 304 372
#     4  10  21  37  59  91 133 182 217 262 322 375
#     4  10  22  42  68  98 134 171 214 269 321 393
#     4  11  26  48  72  97 126 166 218 278 341 396
#     4  11  24  42  62  93 134 168 218 278 323 388
#     4  11  20  39  64  93 136 176 219 261 315 388
#     4  11  21  34  56  90 128 174 221 264 315 375
#     4  11  23  42  70  99 129 173 215 265 335 391
#
# _framework density 25.186768000000001
#
# number of rings (size 3 to 8) (size 9 to 14) (size 15 to 20)
#    0.000    1.250    2.500    4.125    3.500    1.000 
#    0.000    3.125    0.000    0.000    0.000    0.000 
#    0.000    0.000    0.000    0.000    0.000    0.000 
#
# Total GULP energy -89139.851790 kJ/mol
# GULP energy per Si atom -5571.240737 kJ/mol
# Density = 2.512944 g / cm^3
# Si number density = 25.186768 Si / 1000 Ang^3
#
#
#
# Elastic Constant Matrix: (Units=GPa)
#
#
# Indices 1 2 3 4 5 6 
#
# 1 145.4966 64.7923 38.2316 -15.1967 3.4643 -13.2173
# 2 64.7923 140.3470 26.7444 -25.7173 -8.2076 -6.8043
# 3 38.2316 26.7444 72.9240 4.8359 4.4140 0.3666
# 4 -15.1967 -25.7173 4.8359 36.0954 8.5352 -6.9458
# 5 3.4643 -8.2076 4.4140 8.5352 48.0874 1.8626
# 6 -13.2173 -6.8043 0.3666 -6.9458 1.8626 24.5867
#
#
#
# Elastic Compliance Matrix: (Units=1/GPa)
#
#
# Indices 1 2 3 4 5 6 
#
# 1 0.010504 -0.002911 -0.004665 0.004647 -0.001897 0.006367
# 2 -0.002911 0.010530 -0.002876 0.007094 0.000883 0.003329
# 3 -0.004665 -0.002876 0.017749 -0.007419 -0.000249 -0.005645
# 4 0.004647 0.007094 -0.007419 0.040349 -0.006242 0.016444
# 5 -0.001897 0.000883 -0.000249 -0.006242 0.022377 -0.004230
# 6 0.006367 0.003329 -0.005645 0.016444 -0.004230 0.050067
#
#
# Mechanical properties :
#
#
# Convention : Reuss Voigt Hill
#
# Bulk Modulus (GPa) = 55.93212 68.70047 62.31630
# Shear Modulus (GPa) = 28.02060 37.02054 32.52057
#
# Velocity S-wave (km/s) = 3.33905 3.83801 3.59719
# Velocity P-wave (km/s) = 6.09269 6.85391 6.48448
#
# Compressibility (1/GPa) = 0.01787881
#
# Stress axis : x y z
#
# Youngs Moduli (GPa) = 95.20170 94.96448 56.34219
#
# Poissons Ratio (x) = 0.27645 0.26282
# Poissons Ratio (y) = 0.27714 0.16206
# Poissons Ratio (z) = 0.44408 0.27315
#
# Static dielectric constant tensor:
#      x y z
#    x 2.032370 -0.001770 0.020740 
#    y -0.001770 2.309730 0.092080 
#    z 0.020740 0.092080 2.015250 
# 
# From -- ./inp_files/621711.got.cif
#   From: 2010.05.17/outbox.cif.g08.bks.cpg/sg2_311_cif.got.tgz:621711.got - 2010.06.03 11:33:40.
