data_PCOD9003946
_publ_section_title
;
Structure prediction by ZEFSAII (Michael W. Deem and Ramdas Pophale) SiO2 
 PCOD9003946
Probable space group: P -1
;
_chemical_formula_sum "Si O2"
_cell_formula_units_Z 14
_cell_length_a 14.581197
_cell_length_b 7.928577
_cell_length_c 8.532139
_cell_angle_alpha 112.468414
_cell_angle_beta 39.071836
_cell_angle_gamma 110.971190
_cell_volume 571.338881
_symmetry_space_group_name_H-M "P -1"
_symmetry_group_IT_number 2
_symmetry_cell_setting 'triclinic'
loop_
_space_group_symop_operation_xyz
x,y,z
-x,-y,-z
loop_
_atom_site_type_symbol
_atom_site_label
_atom_site_fract_x
_atom_site_fract_y
_atom_site_fract_z
Si Si1 0.730702 0.130773 0.755963
Si Si2 0.964718 0.218237 0.697686
Si Si3 0.006816 0.198707 0.990417
Si Si4 0.877071 0.458729 0.511318
Si Si5 0.736823 0.508891 0.180559
Si Si6 0.512925 0.702304 0.364329
Si Si7 0.469407 0.998591 0.287252
O O1 0.885910 0.096017 0.618630
O O2 0.667964 0.010441 0.650018
O O3 0.750029 0.332371 0.722399
O O4 0.608718 0.087476 0.035507
O O5 0.118300 0.335254 0.489924
O O6 0.957807 0.159167 0.864288
O O7 0.847898 0.371864 0.922232
O O8 0.916787 0.327289 0.267407
O O9 0.164057 0.315852 0.823044
O O10 0.000000 0.000000 0.000000
O O11 0.000000 0.500000 0.500000
O O12 0.637545 0.572436 0.193617
O O13 0.635573 0.409956 0.415122
O O14 0.497657 0.800508 0.252791
O O15 0.550522 0.869568 0.494974
#
# Coordination Sequence:
#
# PCOD9003946 Si02
#       7
#     2   2   2   2   2   2   2
#     4  10  21  37  63  87 130 157 209 252 319 373
#     4  10  21  42  65  89 122 169 205 256 314 381
#     4  11  25  38  69  98 121 163 216 264 310 378
#     4   9  20  39  64  90 123 167 201 254 324 373
#     4  10  21  39  63  92 123 155 215 258 305 374
#     4  10  22  38  66  89 122 166 213 262 305 368
#     4  10  22  37  64  92 120 170 206 267 307 362
#
# _framework density 24.503843
#
# number of rings (size 3 to 8) (size 9 to 14) (size 15 to 20)
#    0.000    2.000    1.429    1.714    8.000    0.000 
#    0.000    3.571    6.286    0.000    0.000    0.000 
#    0.000    0.000    0.000    0.000    0.000    0.000 
#
# Total GULP energy -78150.362558 kJ/mol
# GULP energy per Si atom -5582.168754 kJ/mol
# Density = 2.444807 g / cm^3
# Si number density = 24.503843 Si / 1000 Ang^3
#
#
#
# Elastic Constant Matrix: (Units=GPa)
#
#
# Indices 1 2 3 4 5 6 
#
# 1 149.4555 36.7076 45.8997 -17.6271 34.1963 5.3035
# 2 36.7076 73.5283 32.1611 -31.1013 25.3813 2.5281
# 3 45.8997 32.1611 77.9911 -13.4357 20.7254 -7.7107
# 4 -17.6271 -31.1013 -13.4357 44.6260 0.7743 11.3934
# 5 34.1963 25.3813 20.7254 0.7743 35.1266 -10.3413
# 6 5.3035 2.5281 -7.7107 11.3934 -10.3413 45.4428
#
#
#
# Elastic Compliance Matrix: (Units=1/GPa)
#
#
# Indices 1 2 3 4 5 6 
#
# 1 0.011639 0.006102 -0.004236 0.010041 -0.015986 -0.008572
# 2 0.006102 0.045585 -0.006639 0.039030 -0.042862 -0.023914
# 3 -0.004236 -0.006639 0.018307 -0.001880 -0.000569 0.004312
# 4 0.010041 0.039030 -0.001880 0.061421 -0.046981 -0.029753
# 5 -0.015986 -0.042862 -0.000569 -0.046981 0.086884 0.035705
# 6 -0.008572 -0.023914 0.004312 -0.029753 0.035705 0.040653
#
#
# Mechanical properties :
#
#
# Convention : Reuss Voigt Hill
#
# Bulk Modulus (GPa) = 15.15516 58.94575 37.05045
# Shear Modulus (GPa) = 16.89015 37.45285 27.17150
#
# Velocity S-wave (km/s) = 2.62827 3.91378 3.33358
# Velocity P-wave (km/s) = 3.92539 6.67319 5.47449
#
# Compressibility (1/GPa) = 0.06598413
#
# Stress axis : x y z
#
# Youngs Moduli (GPa) = 85.91716 21.93707 54.62530
#
# Poissons Ratio (x) = -0.13386 0.23139
# Poissons Ratio (y) = -0.52426 0.36267
# Poissons Ratio (z) = 0.36394 0.14565
#
# Static dielectric constant tensor:
#      x y z
#    x 1.992380 0.003720 -0.035830 
#    y 0.003720 2.074830 0.022340 
#    z -0.035830 0.022340 1.988820 
# 
# From -- ./inp_files/278155.got.cif
#   From: 2010.05.17/outbox.cif.g08.bks.cpg/sg2_140_cif.got.tgz:278155.got - 2010.06.03 11:33:40.
