data_PCOD9003687
_publ_section_title
;
Structure prediction by ZEFSAII (Michael W. Deem and Ramdas Pophale) SiO2 
 PCOD9003687
Probable space group: P -1
;
_chemical_formula_sum "Si O2"
_cell_formula_units_Z 14
_cell_length_a 8.628533
_cell_length_b 12.618887
_cell_length_c 13.872970
_cell_angle_alpha 126.718213
_cell_angle_beta 34.290768
_cell_angle_gamma 124.716663
_cell_volume 672.548886
_symmetry_space_group_name_H-M "P -1"
_symmetry_group_IT_number 2
_symmetry_cell_setting 'triclinic'
loop_
_space_group_symop_operation_xyz
x,y,z
-x,-y,-z
loop_
_atom_site_type_symbol
_atom_site_label
_atom_site_fract_x
_atom_site_fract_y
_atom_site_fract_z
Si Si1 0.732715 0.461368 0.045552
Si Si2 0.293904 0.146622 0.516721
Si Si3 0.241228 0.050920 0.277216
Si Si4 0.406053 0.175250 0.059989
Si Si5 0.898389 0.130844 0.162916
Si Si6 0.885994 0.401584 0.227889
Si Si7 0.476331 0.546634 0.395568
O O1 0.644129 0.303278 0.995168
O O2 0.485264 0.512347 0.259929
O O3 0.000000 0.500000 0.000000
O O4 0.831663 0.528960 0.930327
O O5 0.221964 0.125791 0.428728
O O6 0.593638 0.100913 0.350827
O O7 0.344911 0.303869 0.600905
O O8 0.048350 0.051323 0.646201
O O9 0.321509 0.148505 0.199741
O O10 0.475345 0.955135 0.109688
O O11 0.134853 0.194400 0.150483
O O12 0.876569 0.242962 0.154012
O O13 0.000000 0.000000 0.000000
O O14 0.635200 0.441852 0.314056
O O15 0.812398 0.449732 0.398576
#
# Coordination Sequence:
#
# PCOD9003687 Si02
#       7
#     2   2   2   2   2   2   2
#     4  10  21  37  61  93 121 165 215 260 306 372
#     4  10  21  41  66  93 123 169 211 260 323 374
#     4  10  22  39  66  93 124 166 219 264 302 386
#     4  11  24  39  62  97 128 163 218 261 317 381
#     4  11  23  41  62  93 134 167 202 264 333 376
#     4   9  20  36  62  86 125 169 205 256 315 368
#     4   9  19  36  64  92 117 164 219 254 305 377
#
# _framework density 20.816330000000001
#
# number of rings (size 3 to 8) (size 9 to 14) (size 15 to 20)
#    0.000    2.000    1.429    1.714   10.000    2.286 
#    0.000    4.286    0.000    0.000    0.000    0.000 
#    0.000    0.000    0.000    0.000    0.000    0.000 
#
# Total GULP energy -78144.048533 kJ/mol
# GULP energy per Si atom -5581.717752 kJ/mol
# Density = 2.076895 g / cm^3
# Si number density = 20.816330 Si / 1000 Ang^3
#
#
#
# Elastic Constant Matrix: (Units=GPa)
#
#
# Indices 1 2 3 4 5 6 
#
# 1 30.1065 19.0190 17.7708 -0.4339 -11.9634 9.3018
# 2 19.0190 101.0510 39.0460 1.4703 2.1359 -12.1086
# 3 17.7708 39.0460 103.8307 -11.0624 11.4765 -21.1994
# 4 -0.4339 1.4703 -11.0624 46.2978 -1.8220 1.4671
# 5 -11.9634 2.1359 11.4765 -1.8220 43.4080 -1.5950
# 6 9.3018 -12.1086 -21.1994 1.4671 -1.5950 17.4600
#
#
#
# Elastic Compliance Matrix: (Units=1/GPa)
#
#
# Indices 1 2 3 4 5 6 
#
# 1 0.159045 -0.029209 -0.057133 -0.003749 0.054005 -0.169109
# 2 -0.029209 0.017221 0.006564 -0.000721 -0.009389 0.034677
# 3 -0.057133 0.006564 0.035290 0.004415 -0.022443 0.075417
# 4 -0.003749 -0.000721 0.004415 0.022446 -0.001044 0.004877
# 5 0.054005 -0.009389 -0.022443 -0.001044 0.042120 -0.058596
# 6 -0.169109 0.034677 0.075417 0.004877 -0.058596 0.257222
#
#
# Mechanical properties :
#
#
# Convention : Reuss Voigt Hill
#
# Bulk Modulus (GPa) = 19.23021 42.96219 31.09620
# Shear Modulus (GPa) = 7.03994 32.04331 19.54163
#
# Velocity S-wave (km/s) = 1.84100 3.92769 3.06725
# Velocity P-wave (km/s) = 3.71176 6.42281 5.24546
#
# Compressibility (1/GPa) = 0.05200152
#
# Stress axis : x y z
#
# Youngs Moduli (GPa) = 6.28753 58.06804 28.33654
#
# Poissons Ratio (x) = 1.69609 1.61895
# Poissons Ratio (y) = 0.18365 -0.18600
# Poissons Ratio (z) = 0.35922 -0.38116
#
# Static dielectric constant tensor:
#      x y z
#    x 1.754620 0.011740 0.021570 
#    y 0.011740 1.732070 -0.007610 
#    z 0.021570 -0.007610 1.791940 
# 
# From -- ./inp_files/198973.got.cif
#   From: 2010.05.17/outbox.cif.g08.bks.cpg/sg2_100_cif.got.tgz:198973.got - 2010.06.03 11:33:40.
