data_PCOD9003128
_publ_section_title
;
Structure prediction by ZEFSAII (Michael W. Deem and Ramdas Pophale) SiO2 
 PCOD9003128
Probable space group: P -1
;
_chemical_formula_sum "Si O2"
_cell_formula_units_Z 16
_cell_length_a 14.755835
_cell_length_b 6.427434
_cell_length_c 17.559482
_cell_angle_alpha 103.349928
_cell_angle_beta 151.202607
_cell_angle_gamma 76.834330
_cell_volume 779.408792
_symmetry_space_group_name_H-M "P -1"
_symmetry_group_IT_number 2
_symmetry_cell_setting 'triclinic'
loop_
_space_group_symop_operation_xyz
x,y,z
-x,-y,-z
loop_
_atom_site_type_symbol
_atom_site_label
_atom_site_fract_x
_atom_site_fract_y
_atom_site_fract_z
Si Si1 0.124935 0.058528 0.890161
Si Si2 0.554426 0.152190 0.982048
Si Si3 0.568369 0.666427 0.626349
Si Si4 0.893967 0.226530 0.468449
Si Si5 0.244004 0.507343 0.748520
Si Si6 0.088029 0.308452 0.223650
Si Si7 0.807511 0.268636 0.577718
Si Si8 0.165876 0.449125 0.058731
O O1 0.008527 0.165843 0.743762
O O2 0.148448 0.216089 0.990988
O O3 0.987601 0.880316 0.799862
O O4 0.330092 0.984938 0.006220
O O5 0.382363 0.295280 0.832002
O O6 0.693085 0.333939 0.126581
O O7 0.500000 0.000000 0.000000
O O8 0.500000 0.500000 0.500000
O O9 0.748798 0.759623 0.724063
O O10 0.379835 0.804821 0.523013
O O11 0.646588 0.551330 0.752034
O O12 0.761443 0.337198 0.315592
O O13 0.791018 0.215584 0.472371
O O14 0.045185 0.407715 0.606920
O O15 0.000000 0.000000 0.500000
O O16 0.170439 0.487332 0.355438
O O17 0.899951 0.400309 0.047601
O O18 0.000000 0.500000 0.000000
#
# Coordination Sequence:
#
# PCOD9003128 Si02
#       8
#     2   2   2   2   2   2   2   2
#     4  11  22  37  62  87 111 156 201 238 299 357
#     4  11  23  41  61  87 122 159 206 258 300 355
#     4   9  19  37  58  82 114 149 184 234 295 345
#     4  11  22  39  61  89 126 161 197 246 302 365
#     4  10  23  39  61  87 120 163 204 248 305 356
#     4   9  20  39  60  83 113 150 196 244 289 352
#     4  10  21  37  58  84 118 154 191 242 297 350
#     4   9  20  38  59  84 116 150 193 245 295 347
#
# _framework density 20.528379000000001
#
# number of rings (size 3 to 8) (size 9 to 14) (size 15 to 20)
#    0.000    2.000    0.000    3.750    0.000    9.500 
#    0.000    2.500    0.000    1.500    0.000    0.000 
#    0.000    0.000    0.000    0.000    0.000    0.000 
#
# Total GULP energy -89112.234735 kJ/mol
# GULP energy per Si atom -5569.514671 kJ/mol
# Density = 2.048166 g / cm^3
# Si number density = 20.528379 Si / 1000 Ang^3
#
#
#
# Elastic Constant Matrix: (Units=GPa)
#
#
# Indices 1 2 3 4 5 6 
#
# 1 95.1237 38.6814 -10.1634 -0.3690 -0.4371 -14.0075
# 2 38.6814 67.2914 1.1170 -15.0946 0.6095 -9.0167
# 3 -10.1634 1.1170 58.7603 -6.0478 -6.2182 0.7407
# 4 -0.3690 -15.0946 -6.0478 20.6693 7.6912 4.5802
# 5 -0.4371 0.6095 -6.2182 7.6912 13.5579 -3.0529
# 6 -14.0075 -9.0167 0.7407 4.5802 -3.0529 24.5997
#
#
#
# Elastic Compliance Matrix: (Units=1/GPa)
#
#
# Indices 1 2 3 4 5 6 
#
# 1 0.017090 -0.011946 0.002929 -0.014422 0.012759 0.009533
# 2 -0.011946 0.027494 -0.001720 0.027259 -0.018793 -0.004080
# 3 0.002929 -0.001720 0.018521 0.000708 0.008582 0.001412
# 4 -0.014422 0.027259 0.000708 0.096353 -0.061385 -0.023800
# 5 0.012759 -0.018793 0.008582 -0.061385 0.119718 0.026405
# 6 0.009533 -0.004080 0.001412 -0.023800 0.026405 0.052249
#
#
# Mechanical properties :
#
#
# Convention : Reuss Voigt Hill
#
# Bulk Modulus (GPa) = 24.02125 31.16061 27.59093
# Shear Modulus (GPa) = 13.63226 24.53476 19.08351
#
# Velocity S-wave (km/s) = 2.57975 3.46086 3.05227
# Velocity P-wave (km/s) = 4.53876 5.58411 5.08835
#
# Compressibility (1/GPa) = 0.04162981
#
# Stress axis : x y z
#
# Youngs Moduli (GPa) = 58.51522 36.37139 53.99317
#
# Poissons Ratio (x) = 0.43448 -0.15813
# Poissons Ratio (y) = 0.69900 0.09289
# Poissons Ratio (z) = -0.17137 0.06258
#
# Static dielectric constant tensor:
#      x y z
#    x 1.737440 0.018720 -0.021520 
#    y 0.018720 1.744970 -0.057340 
#    z -0.021520 -0.057340 1.811930 
# 
# From -- ./inp_files/39864.got.cif
#   From: 2010.05.17/outbox.cif.g08.bks.cpg/sg2_20_cif.got.tgz:39864.got - 2010.06.03 11:33:40.
