data_PCOD9003789
_publ_section_title
;
Structure prediction by ZEFSAII (Michael W. Deem and Ramdas Pophale) SiO2 
 PCOD9003789
Probable space group: P -1
;
_chemical_formula_sum "Si O2"
_cell_formula_units_Z 16
_cell_length_a 14.278280
_cell_length_b 14.661706
_cell_length_c 5.662651
_cell_angle_alpha 104.004982
_cell_angle_beta 95.031957
_cell_angle_gamma 39.954501
_cell_volume 729.481666
_symmetry_space_group_name_H-M "P -1"
_symmetry_group_IT_number 2
_symmetry_cell_setting 'triclinic'
loop_
_space_group_symop_operation_xyz
x,y,z
-x,-y,-z
loop_
_atom_site_type_symbol
_atom_site_label
_atom_site_fract_x
_atom_site_fract_y
_atom_site_fract_z
Si Si1 0.850745 0.503967 0.005172
Si Si2 0.825247 0.795238 0.957733
Si Si3 0.421621 0.971264 0.575549
Si Si4 0.737308 0.032856 0.846747
Si Si5 0.656564 0.268598 0.753780
Si Si6 0.506915 0.263437 0.330039
Si Si7 0.345568 0.515200 0.128376
Si Si8 0.823704 0.623027 0.562965
O O1 0.792229 0.608937 0.282039
O O2 0.027722 0.356676 0.979002
O O3 0.775635 0.459914 0.991643
O O4 0.809102 0.575956 0.780516
O O5 0.776422 0.764135 0.715781
O O6 0.851560 0.880331 0.917569
O O7 0.686853 0.908588 0.170660
O O8 0.319350 0.987789 0.391922
O O9 0.533410 0.803510 0.593110
O O10 0.500000 0.000000 0.500000
O O11 0.769921 0.113527 0.821114
O O12 0.593512 0.158553 0.056877
O O13 0.619700 0.238412 0.492579
O O14 0.701987 0.340485 0.767417
O O15 0.498411 0.395158 0.936535
O O16 0.386392 0.432266 0.331406
O O17 0.000000 0.500000 0.500000
#
# Coordination Sequence:
#
# PCOD9003789 Si02
#       8
#     2   2   2   2   2   2   2   2
#     4  11  25  41  62  99 125 166 221 257 313 381
#     4  10  22  39  63  83 126 171 198 260 313 369
#     4  10  22  37  58  88 122 162 212 255 307 378
#     4   9  20  37  58  85 118 157 204 248 313 380
#     4   9  19  39  62  87 121 159 204 259 335 366
#     4   9  19  37  55  87 120 159 200 255 315 374
#     4  10  21  37  62  90 120 160 205 271 314 379
#     4  10  23  42  61  91 129 171 212 252 312 381
#
# _framework density 21.933382000000002
#
# number of rings (size 3 to 8) (size 9 to 14) (size 15 to 20)
#    0.000    2.250    0.000    1.875    7.000    6.000 
#    0.000    0.625    0.000    6.750    0.000    0.000 
#    0.000    0.000    0.000    0.000    0.000    0.000 
#
# Total GULP energy -89189.513333 kJ/mol
# GULP energy per Si atom -5574.344583 kJ/mol
# Density = 2.188346 g / cm^3
# Si number density = 21.933382 Si / 1000 Ang^3
#
#
#
# Elastic Constant Matrix: (Units=GPa)
#
#
# Indices 1 2 3 4 5 6 
#
# 1 103.9719 35.5713 37.5431 2.3391 6.1251 43.7328
# 2 35.5713 115.8264 37.7629 -9.5832 -8.8194 40.2983
# 3 37.5431 37.7629 116.5239 13.7343 -0.1815 20.0686
# 4 2.3391 -9.5832 13.7343 32.5511 4.1780 3.0141
# 5 6.1251 -8.8194 -0.1815 4.1780 20.3623 3.6859
# 6 43.7328 40.2983 20.0686 3.0141 3.6859 41.9930
#
#
#
# Elastic Compliance Matrix: (Units=1/GPa)
#
#
# Indices 1 2 3 4 5 6 
#
# 1 0.018576 0.002712 -0.003743 0.003100 -0.001415 -0.020258
# 2 0.002712 0.016565 -0.003942 0.006969 0.008162 -0.018054
# 3 -0.003743 -0.003942 0.011304 -0.005942 0.000253 0.002682
# 4 0.003100 0.006969 -0.005942 0.036404 -0.003742 -0.009362
# 5 -0.001415 0.008162 0.000253 -0.003742 0.055853 -0.011113
# 6 -0.020258 -0.018054 0.002682 -0.009362 -0.011113 0.062602
#
#
# Mechanical properties :
#
#
# Convention : Reuss Voigt Hill
#
# Bulk Modulus (GPa) = 27.39617 62.00855 44.70236
# Shear Modulus (GPa) = 22.37978 34.01095 28.19536
#
# Velocity S-wave (km/s) = 3.19776 3.94210 3.58928
# Velocity P-wave (km/s) = 5.11390 7.00378 6.13208
#
# Compressibility (1/GPa) = 0.03650146
#
# Stress axis : x y z
#
# Youngs Moduli (GPa) = 53.83228 60.36715 88.46460
#
# Poissons Ratio (x) = -0.16374 0.33110
# Poissons Ratio (y) = -0.14601 0.34869
# Poissons Ratio (z) = 0.20148 0.23795
#
# Static dielectric constant tensor:
#      x y z
#    x 1.825810 0.010690 -0.020470 
#    y 0.010690 1.903210 -0.046680 
#    z -0.020470 -0.046680 1.828940 
# 
# From -- ./inp_files/98291.got.cif
#   From: 2010.05.17/outbox.cif.g08.bks.cpg/sg2_50_cif.got.tgz:98291.got - 2010.06.03 11:33:40.
