data_PCOD9003823
_publ_section_title
;
Structure prediction by ZEFSAII (Michael W. Deem and Ramdas Pophale) SiO2 
 PCOD9003823
Probable space group: P -1
;
_chemical_formula_sum "Si O2"
_cell_formula_units_Z 16
_cell_length_a 7.867630
_cell_length_b 19.242570
_cell_length_c 11.485715
_cell_angle_alpha 32.697039
_cell_angle_beta 136.029679
_cell_angle_gamma 121.501534
_cell_volume 635.938568
_symmetry_space_group_name_H-M "P -1"
_symmetry_group_IT_number 2
_symmetry_cell_setting 'triclinic'
loop_
_space_group_symop_operation_xyz
x,y,z
-x,-y,-z
loop_
_atom_site_type_symbol
_atom_site_label
_atom_site_fract_x
_atom_site_fract_y
_atom_site_fract_z
Si Si1 0.724239 0.878435 0.441305
Si Si2 0.011548 0.292847 0.764874
Si Si3 0.487164 0.912142 0.504536
Si Si4 0.745169 0.579688 0.596394
Si Si5 0.936185 0.239175 0.409190
Si Si6 0.345716 0.839157 0.108258
Si Si7 0.159298 0.105940 0.908463
Si Si8 0.353251 0.458180 0.665152
O O1 0.697481 0.840786 0.616519
O O2 0.986515 0.793405 0.639186
O O3 0.493324 0.843887 0.298520
O O4 0.711272 0.029785 0.182235
O O5 0.023848 0.239297 0.716128
O O6 0.280277 0.328874 0.865165
O O7 0.925732 0.185711 0.953061
O O8 0.800386 0.423242 0.500179
O O9 0.300679 0.813884 0.583441
O O10 0.500000 0.000000 0.500000
O O11 0.394360 0.037124 0.194016
O O12 0.987671 0.625306 0.703086
O O13 0.510147 0.710045 0.304835
O O14 0.635862 0.474119 0.767734
O O15 0.757752 0.533741 0.533089
O O16 0.162115 0.132789 0.737224
O O17 0.000000 0.000000 0.000000
#
# Coordination Sequence:
#
# PCOD9003823 Si02
#       8
#     2   2   2   2   2   2   2   2
#     4  10  19  31  49  77 103 140 174 213 253 321
#     4  10  17  28  46  72 110 140 168 211 268 313
#     4  11  23  35  51  79 110 141 174 214 266 320
#     4   9  16  28  43  70 108 137 169 210 266 309
#     4  10  19  34  55  75 106 142 174 215 261 314
#     4   9  16  28  48  75 107 135 171 212 263 308
#     4  10  18  31  54  77 104 137 173 210 257 316
#     4   9  18  26  42  75 111 139 165 215 266 312
#
# _framework density 25.159663999999999
#
# number of rings (size 3 to 8) (size 9 to 14) (size 15 to 20)
#    0.000    2.250    1.250    5.250    0.000    0.500 
#    0.000    0.000    0.000    0.000    0.000    1.750 
#    0.000    0.250    0.000    0.000    0.000    0.000 
#
# Total GULP energy -89104.192250 kJ/mol
# GULP energy per Si atom -5569.012016 kJ/mol
# Density = 2.510240 g / cm^3
# Si number density = 25.159664 Si / 1000 Ang^3
#
#
#
# Elastic Constant Matrix: (Units=GPa)
#
#
# Indices 1 2 3 4 5 6 
#
# 1 179.9747 64.9630 23.1608 -11.3001 -38.3805 5.9563
# 2 64.9630 121.8990 21.1051 -22.6851 -23.8400 11.1341
# 3 23.1608 21.1051 27.0643 7.4583 10.4845 10.6901
# 4 -11.3001 -22.6851 7.4583 29.9586 -6.8856 -12.9230
# 5 -38.3805 -23.8400 10.4845 -6.8856 18.2069 -23.0638
# 6 5.9563 11.1341 10.6901 -12.9230 -23.0638 49.7200
#
#
#
# Elastic Compliance Matrix: (Units=1/GPa)
#
#
# Indices 1 2 3 4 5 6 
#
# 1 0.005760 -0.005393 0.004204 -0.005731 -0.004570 -0.003996
# 2 -0.005393 0.009444 0.002943 -0.000159 -0.008417 -0.006048
# 3 0.004204 0.002943 0.010575 0.013773 0.029142 0.013662
# 4 -0.005731 -0.000159 0.013773 0.017717 -0.025519 -0.009472
# 5 -0.004570 -0.008417 0.029142 -0.025519 -0.013146 -0.016564
# 6 -0.003996 -0.006048 0.013662 -0.009472 -0.016564 0.008863
#
#
# Mechanical properties :
#
#
# Convention : Reuss Voigt Hill
#
# Bulk Modulus (GPa) = 34.14321 60.82176 47.48248
# Shear Modulus (GPa) = 109.97278 34.22436 72.09857
#
# Velocity S-wave (km/s) = 6.61852 3.69221 5.35898
# Velocity P-wave (km/s) = 8.48567 6.51178 7.56339
#
# Compressibility (1/GPa) = 0.02928840
#
# Stress axis : x y z
#
# Youngs Moduli (GPa) = 173.61863 105.88236 94.56675
#
# Poissons Ratio (x) = 0.57099 -0.39757
# Poissons Ratio (y) = 0.93627 -0.27835
# Poissons Ratio (z) = -0.72992 -0.31165
#
# Static dielectric constant tensor:
#      x y z
#    x 1.918750 0.053290 0.180330 
#    y 0.053290 2.137230 -0.203390 
#    z 0.180330 -0.203390 2.516370 
# 
# From -- ./inp_files/284817.got.cif
#   From: 2010.05.17/outbox.cif.g08.bks.cpg/sg2_143_cif.got.tgz:284817.got - 2010.06.03 11:33:40.
