data_PCOD9003297
_publ_section_title
;
Structure prediction by ZEFSAII (Michael W. Deem and Ramdas Pophale) SiO2 
 PCOD9003297
Probable space group: P -1
;
_chemical_formula_sum "Si O2"
_cell_formula_units_Z 16
_cell_length_a 8.166978
_cell_length_b 8.700783
_cell_length_c 12.234616
_cell_angle_alpha 90.754362
_cell_angle_beta 72.624342
_cell_angle_gamma 131.568410
_cell_volume 599.564353
_symmetry_space_group_name_H-M "P -1"
_symmetry_group_IT_number 2
_symmetry_cell_setting 'triclinic'
loop_
_space_group_symop_operation_xyz
x,y,z
-x,-y,-z
loop_
_atom_site_type_symbol
_atom_site_label
_atom_site_fract_x
_atom_site_fract_y
_atom_site_fract_z
Si Si1 0.652882 0.789533 0.914274
Si Si2 0.741056 0.168195 0.774838
Si Si3 0.270478 0.662902 0.415983
Si Si4 0.742446 0.868321 0.380889
Si Si5 0.879829 0.591195 0.018379
Si Si6 0.761661 0.695070 0.678125
Si Si7 0.745354 0.545893 0.291137
Si Si8 0.728456 0.941252 0.125232
O O1 0.375775 0.592771 0.982453
O O2 0.734911 0.712489 0.811731
O O3 0.715120 0.989085 0.839967
O O4 0.763797 0.853677 0.012541
O O5 0.685656 0.151492 0.656807
O O6 0.012690 0.400156 0.730294
O O7 0.525516 0.139992 0.857614
O O8 0.480744 0.768487 0.462631
O O9 0.280247 0.508347 0.343650
O O10 0.000000 0.500000 0.500000
O O11 0.765603 0.698335 0.375359
O O12 0.741633 0.896984 0.248124
O O13 0.968658 0.084042 0.395540
O O14 0.817435 0.621615 0.150816
O O15 0.000000 0.500000 0.000000
O O16 0.079626 0.807958 0.919792
O O17 0.540991 0.652591 0.666142
#
# Coordination Sequence:
#
# PCOD9003297 Si02
#       8
#     2   2   2   2   2   2   2   2
#     4  11  21  37  63  89 133 172 210 248 297 367
#     4  11  20  41  65  88 127 169 202 260 314 352
#     4  10  25  47  69  93 120 153 207 271 327 376
#     4  10  22  42  64  89 128 167 204 256 311 366
#     4  11  20  30  52  86 125 168 214 244 286 351
#     4  10  22  42  65  89 126 166 209 250 312 374
#     4  10  21  37  59  87 128 162 207 257 298 360
#     4  11  22  36  59  92 133 171 212 250 295 355
#
# _framework density 26.686045
#
# number of rings (size 3 to 8) (size 9 to 14) (size 15 to 20)
#    0.000    1.500    3.750    1.125    0.000    6.500 
#    2.250   10.625    0.000    0.000    0.000    0.000 
#    0.000    0.000    0.000    0.000    0.000    0.000 
#
# Total GULP energy -89328.014964 kJ/mol
# GULP energy per Si atom -5583.000935 kJ/mol
# Density = 2.662531 g / cm^3
# Si number density = 26.686045 Si / 1000 Ang^3
#
#
#
# Elastic Constant Matrix: (Units=GPa)
#
#
# Indices 1 2 3 4 5 6 
#
# 1 163.3899 54.7826 44.8469 -13.4206 -22.2966 40.7676
# 2 54.7826 130.2776 24.0771 -17.7863 -20.8645 45.9751
# 3 44.8469 24.0771 64.6831 -12.0723 -13.7000 2.7208
# 4 -13.4206 -17.7863 -12.0723 30.1374 15.7467 -13.9600
# 5 -22.2966 -20.8645 -13.7000 15.7467 55.7812 -19.0831
# 6 40.7676 45.9751 2.7208 -13.9600 -19.0831 53.8435
#
#
#
# Elastic Compliance Matrix: (Units=1/GPa)
#
#
# Indices 1 2 3 4 5 6 
#
# 1 0.009726 -0.000693 -0.006519 -0.001999 0.000239 -0.006877
# 2 -0.000693 0.012023 -0.003412 0.001178 -0.000136 -0.009312
# 3 -0.006519 -0.003412 0.022806 0.007099 0.003000 0.009600
# 4 -0.001999 0.001178 0.007099 0.044089 -0.008079 0.008717
# 5 0.000239 -0.000136 0.003000 -0.008079 0.022986 0.005835
# 6 -0.006877 -0.009312 0.009600 0.008717 0.005835 0.035573
#
#
# Mechanical properties :
#
#
# Convention : Reuss Voigt Hill
#
# Bulk Modulus (GPa) = 42.90447 67.30710 55.10578
# Shear Modulus (GPa) = 28.37369 43.59534 35.98451
#
# Velocity S-wave (km/s) = 3.26427 4.04621 3.67609
# Velocity P-wave (km/s) = 5.50633 6.86336 6.22195
#
# Compressibility (1/GPa) = 0.02330760
#
# Stress axis : x y z
#
# Youngs Moduli (GPa) = 102.81566 83.17290 43.84795
#
# Poissons Ratio (x) = 0.05765 0.28583
# Poissons Ratio (y) = 0.07126 0.14962
# Poissons Ratio (z) = 0.67022 0.28380
#
# Static dielectric constant tensor:
#      x y z
#    x 2.135480 0.010140 -0.004590 
#    y 0.010140 2.089280 -0.021310 
#    z -0.004590 -0.021310 2.215560 
# 
# From -- ./inp_files/555369.got.cif
#   From: 2010.05.17/outbox.cif.g08.bks.cpg/sg2_278_cif.got.tgz:555369.got - 2010.06.03 11:33:40.
