data_PCOD9003898
_publ_section_title
;
Structure prediction by ZEFSAII (Michael W. Deem and Ramdas Pophale) SiO2 
 PCOD9003898
Probable space group: P -1
;
_chemical_formula_sum "Si O2"
_cell_formula_units_Z 16
_cell_length_a 10.735206
_cell_length_b 5.321359
_cell_length_c 19.160298
_cell_angle_alpha 133.023295
_cell_angle_beta 105.731718
_cell_angle_gamma 66.207645
_cell_volume 732.178894
_symmetry_space_group_name_H-M "P -1"
_symmetry_group_IT_number 2
_symmetry_cell_setting 'triclinic'
loop_
_space_group_symop_operation_xyz
x,y,z
-x,-y,-z
loop_
_atom_site_type_symbol
_atom_site_label
_atom_site_fract_x
_atom_site_fract_y
_atom_site_fract_z
Si Si1 0.702322 0.776256 0.339772
Si Si2 0.990124 0.333530 0.852890
Si Si3 0.451711 0.151656 0.445719
Si Si4 0.177709 0.143817 0.974760
Si Si5 0.039658 0.702898 0.650327
Si Si6 0.419574 0.241103 0.969785
Si Si7 0.273508 0.316367 0.832047
Si Si8 0.157526 0.647208 0.501018
O O1 0.819557 0.407125 0.305159
O O2 0.698297 0.847861 0.270973
O O3 0.548389 0.841858 0.352490
O O4 0.770220 0.046406 0.441354
O O5 0.117428 0.384807 0.841257
O O6 0.879875 0.704013 0.929940
O O7 0.947342 0.059206 0.743725
O O8 0.056032 0.168671 0.906288
O O9 0.500000 0.500000 0.500000
O O10 0.288177 0.283760 0.447481
O O11 0.500000 0.000000 0.500000
O O12 0.267084 0.394556 0.008334
O O13 0.274409 0.731770 0.910121
O O14 0.087196 0.725264 0.581848
O O15 0.954361 0.418121 0.580316
O O16 0.500000 0.500000 0.000000
O O17 0.376666 0.083392 0.861375
O O18 0.500000 0.000000 0.000000
#
# Coordination Sequence:
#
# PCOD9003898 Si02
#       8
#     2   2   2   2   2   2   2   2
#     4  11  21  38  65  93 127 175 228 271 325 413
#     4  10  21  37  62  97 126 167 223 275 331 398
#     4  10  21  40  63  89 125 170 221 270 326 391
#     4  10  21  39  65  93 128 176 214 274 334 397
#     4  11  20  37  63  90 133 165 223 276 335 383
#     4  11  23  44  66  94 133 173 220 273 337 399
#     4  11  21  38  68  94 129 177 224 270 333 406
#     4  10  22  38  59  91 128 176 211 279 335 385
#
# _framework density 21.852581000000001
#
# number of rings (size 3 to 8) (size 9 to 14) (size 15 to 20)
#    0.000    1.500    5.000    0.750    0.000    0.000 
#    2.250    0.000    0.000    0.000    0.000    0.000 
#    0.000    0.000    0.000    0.000    0.000    0.000 
#
# Total GULP energy -89067.743028 kJ/mol
# GULP energy per Si atom -5566.733939 kJ/mol
# Density = 2.180284 g / cm^3
# Si number density = 21.852581 Si / 1000 Ang^3
#
#
#
# Elastic Constant Matrix: (Units=GPa)
#
#
# Indices 1 2 3 4 5 6 
#
# 1 78.5789 10.9632 45.9762 2.0660 -6.1537 1.8567
# 2 10.9632 75.7017 12.5529 -16.5773 3.8861 -3.0438
# 3 45.9762 12.5529 106.3124 -8.8580 -4.5442 -3.4548
# 4 2.0660 -16.5773 -8.8580 35.0074 4.3783 1.2683
# 5 -6.1537 3.8861 -4.5442 4.3783 33.0095 -0.4330
# 6 1.8567 -3.0438 -3.4548 1.2683 -0.4330 37.0268
#
#
#
# Elastic Compliance Matrix: (Units=1/GPa)
#
#
# Indices 1 2 3 4 5 6 
#
# 1 0.018060 -0.002555 -0.007809 -0.004590 0.003180 -0.001650
# 2 -0.002555 0.015544 -0.000185 0.007846 -0.003358 0.001081
# 3 -0.007809 -0.000185 0.013154 0.003659 -0.000089 0.001477
# 4 -0.004590 0.007846 0.003659 0.034205 -0.005813 -0.000023
# 5 0.003180 -0.003358 -0.000089 -0.005813 0.032043 0.000130
# 6 -0.001650 0.001081 0.001477 -0.000023 0.000130 0.027319
#
#
# Mechanical properties :
#
#
# Convention : Reuss Voigt Hill
#
# Bulk Modulus (GPa) = 38.97032 44.39750 41.68391
# Shear Modulus (GPa) = 29.41569 33.74882 31.58225
#
# Velocity S-wave (km/s) = 3.67290 3.93413 3.80576
# Velocity P-wave (km/s) = 5.98823 6.40292 6.19905
#
# Compressibility (1/GPa) = 0.02566055
#
# Stress axis : x y z
#
# Youngs Moduli (GPa) = 55.37079 64.33191 76.02160
#
# Poissons Ratio (x) = 0.16438 0.59363
# Poissons Ratio (y) = 0.14149 0.01407
# Poissons Ratio (z) = 0.43237 0.01191
#
# Static dielectric constant tensor:
#      x y z
#    x 1.937340 -0.010780 0.001170 
#    y -0.010780 1.971650 0.090010 
#    z 0.001170 0.090010 1.843710 
# 
# From -- ./inp_files/564322.got.cif
#   From: 2010.05.17/outbox.cif.g08.bks.cpg/sg2_283_cif.got.tgz:564322.got - 2010.06.03 11:33:40.
