data_PCOD9003427
_publ_section_title
;
Structure prediction by ZEFSAII (Michael W. Deem and Ramdas Pophale) SiO2 
 PCOD9003427
Probable space group: P -1
;
_chemical_formula_sum "Si O2"
_cell_formula_units_Z 12
_cell_length_a 5.269074
_cell_length_b 17.392815
_cell_length_c 17.057085
_cell_angle_alpha 156.808692
_cell_angle_beta 84.829959
_cell_angle_gamma 102.390685
_cell_volume 577.454968
_symmetry_space_group_name_H-M "P -1"
_symmetry_group_IT_number 2
_symmetry_cell_setting 'triclinic'
loop_
_space_group_symop_operation_xyz
x,y,z
-x,-y,-z
loop_
_atom_site_type_symbol
_atom_site_label
_atom_site_fract_x
_atom_site_fract_y
_atom_site_fract_z
Si Si1 0.152325 0.909509 0.524982
Si Si2 0.565037 0.065036 0.934964
Si Si3 0.232205 0.475018 0.090491
Si Si4 0.255000 0.255001 0.745001
Si Si5 0.881423 0.881425 0.118576
Si Si6 0.690344 0.356896 0.356896
O O1 0.191012 0.691010 0.308991
O O2 0.889163 0.880704 0.452270
O O3 0.361826 0.108318 0.661431
O O4 0.118643 0.961459 0.663834
O O5 0.352708 0.120489 0.937000
O O6 0.830783 0.062998 0.879509
O O7 0.416594 0.836715 0.761502
O O8 0.658620 0.238500 0.163286
O O9 0.539272 0.547727 0.119293
O O10 0.085061 0.338569 0.891683
O O11 0.178983 0.336166 0.038542
O O12 0.500000 0.500000 0.500000
O O13 0.000000 0.500000 0.500000
#
# Coordination Sequence:
#
# PCOD9003427 Si02
#       6
#     2   2   2   2   2   2
#     4  10  21  37  60  86 123 175 222 273 328 379
#     4  11  26  48  66 106 142 160 220 274 312 406
#     4  10  21  37  60  86 123 175 222 273 328 379
#     4   9  20  38  56  87 118 170 236 277 312 384
#     4  11  26  41  64  97 140 170 204 277 334 377
#     4  11  24  47  80 100 128 181 214 255 328 396
#
# _framework density 20.780842
#
# number of rings (size 3 to 8) (size 9 to 14) (size 15 to 20)
#    0.000    1.667    0.000    3.000    4.667    6.667 
#    6.000    0.000    0.000    0.000    0.000    0.000 
#    0.000    0.000    0.000    0.000    0.000    0.000 
#
# Total GULP energy -66902.986371 kJ/mol
# GULP energy per Si atom -5575.248864 kJ/mol
# Density = 2.073354 g / cm^3
# Si number density = 20.780842 Si / 1000 Ang^3
#
#
#
# Elastic Constant Matrix: (Units=GPa)
#
#
# Indices 1 2 3 4 5 6 
#
# 1 123.4365 73.3017 63.8703 -1.9638 4.5278 0.8689
# 2 73.3017 160.2948 86.9152 -7.6727 6.2606 0.4438
# 3 63.8703 86.9152 183.4876 12.7395 -8.0490 -2.3367
# 4 -1.9638 -7.6727 12.7395 23.2939 -2.5125 -0.1937
# 5 4.5278 6.2606 -8.0490 -2.5125 42.9974 3.4240
# 6 0.8689 0.4438 -2.3367 -0.1937 3.4240 27.1826
#
#
#
# Elastic Compliance Matrix: (Units=1/GPa)
#
#
# Indices 1 2 3 4 5 6 
#
# 1 0.011736 -0.004063 -0.002263 0.000779 -0.000993 -0.000373
# 2 -0.004063 0.010593 -0.004033 0.005184 -0.001554 -0.000157
# 3 -0.002263 -0.004033 0.008664 -0.006032 0.002049 0.000582
# 4 0.000779 0.005184 -0.006032 0.048093 0.000876 -0.000396
# 5 -0.000993 -0.001554 0.002049 0.000876 0.024247 -0.002815
# 6 -0.000373 -0.000157 0.000582 -0.000396 -0.002815 0.037205
#
#
# Mechanical properties :
#
#
# Convention : Reuss Voigt Hill
#
# Bulk Modulus (GPa) = 97.32662 101.71039 99.51851
# Shear Modulus (GPa) = 30.36161 34.90356 32.63258
#
# Velocity S-wave (km/s) = 3.82650 4.10274 3.96703
# Velocity P-wave (km/s) = 8.15225 8.45541 8.30521
#
# Compressibility (1/GPa) = 0.01027468
#
# Stress axis : x y z
#
# Youngs Moduli (GPa) = 85.20446 94.40532 115.41402
#
# Poissons Ratio (x) = 0.38354 0.26121
# Poissons Ratio (y) = 0.34616 0.46552
# Poissons Ratio (z) = 0.19284 0.38078
#
# Static dielectric constant tensor:
#      x y z
#    x 1.854990 0.025970 0.103960 
#    y 0.025970 1.717340 0.057200 
#    z 0.103960 0.057200 1.962630 
# 
# From -- ./inp_files/483438.got.cif
#   From: 2010.05.17/outbox.cif.g08.bks.cpg/sg2_242_cif.got.tgz:483438.got - 2010.06.03 11:33:40.
