data_PCOD9003322
_publ_section_title
;
Structure prediction by ZEFSAII (Michael W. Deem and Ramdas Pophale) SiO2 
 PCOD9003322
Probable space group: P -1
;
_chemical_formula_sum "Si O2"
_cell_formula_units_Z 14
_cell_length_a 15.139204
_cell_length_b 11.060506
_cell_length_c 9.241692
_cell_angle_alpha 81.499671
_cell_angle_beta 102.904162
_cell_angle_gamma 155.871045
_cell_volume 610.508606
_symmetry_space_group_name_H-M "P -1"
_symmetry_group_IT_number 2
_symmetry_cell_setting 'triclinic'
loop_
_space_group_symop_operation_xyz
x,y,z
-x,-y,-z
loop_
_atom_site_type_symbol
_atom_site_label
_atom_site_fract_x
_atom_site_fract_y
_atom_site_fract_z
Si Si1 0.205541 0.348947 0.101016
Si Si2 0.483246 0.448370 0.671828
Si Si3 0.528938 0.899575 0.585103
Si Si4 0.594035 0.423111 0.164423
Si Si5 0.903875 0.186769 0.032346
Si Si6 0.593236 0.901665 0.308947
Si Si7 0.022191 0.498671 0.775837
O O1 0.287366 0.329280 0.221221
O O2 0.988922 0.155943 0.099746
O O3 0.403102 0.686783 0.159345
O O4 0.227411 0.352058 0.937886
O O5 0.500000 0.500000 0.500000
O O6 0.413753 0.473485 0.744743
O O7 0.321554 0.131427 0.681515
O O8 0.482796 0.762972 0.450162
O O9 0.785965 0.200942 0.666906
O O10 0.500000 0.000000 0.500000
O O11 0.396363 0.685818 0.712189
O O12 0.355344 0.130665 0.046765
O O13 0.961086 0.360313 0.140736
O O14 0.034094 0.395688 0.900467
O O15 0.778367 0.231877 0.308018
#
# Coordination Sequence:
#
# PCOD9003322 Si02
#       7
#     2   2   2   2   2   2   2
#     4  10  22  36  66  89 115 163 200 245 300 358
#     4  10  21  41  63  84 122 161 200 249 302 350
#     4  11  23  37  61  89 122 161 200 246 302 358
#     4  11  21  42  63  89 124 158 200 252 297 353
#     4  10  21  38  59  96 122 153 202 249 300 353
#     4  10  21  39  59  88 116 163 196 244 302 353
#     4  10  21  37  59  88 128 156 196 253 296 359
#
# _framework density 22.931698999999998
#
# number of rings (size 3 to 8) (size 9 to 14) (size 15 to 20)
#    0.857    0.857    2.857    1.714    2.000    1.143 
#    0.000    0.000    0.000    5.143    0.000    0.000 
#    0.000    0.000    0.000    0.000    0.000    0.000 
#
# Total GULP energy -78126.130967 kJ/mol
# GULP energy per Si atom -5580.437926 kJ/mol
# Density = 2.287951 g / cm^3
# Si number density = 22.931699 Si / 1000 Ang^3
#
#
#
# Elastic Constant Matrix: (Units=GPa)
#
#
# Indices 1 2 3 4 5 6 
#
# 1 111.1107 -5.9182 45.7866 -1.8283 1.9063 -6.5881
# 2 -5.9182 23.9911 0.0166 -5.1193 3.2079 -8.7960
# 3 45.7866 0.0166 120.0977 -13.9110 -3.7713 5.9686
# 4 -1.8283 -5.1193 -13.9110 18.9387 -8.1154 -5.9861
# 5 1.9063 3.2079 -3.7713 -8.1154 43.8295 -1.7872
# 6 -6.5881 -8.7960 5.9686 -5.9861 -1.7872 24.4205
#
#
#
# Elastic Compliance Matrix: (Units=1/GPa)
#
#
# Indices 1 2 3 4 5 6 
#
# 1 0.011635 0.005513 -0.004690 0.000805 -0.000903 0.006402
# 2 0.005513 0.059207 -0.000509 0.026070 0.001410 0.029431
# 3 -0.004690 -0.000509 0.011243 0.008166 0.002639 -0.002001
# 4 0.000805 0.026070 0.008166 0.081415 0.015003 0.028666
# 5 -0.000903 0.001410 0.002639 0.015003 0.025969 0.005197
# 6 0.006402 0.029431 -0.002001 0.028666 0.005197 0.061174
#
#
# Mechanical properties :
#
#
# Convention : Reuss Voigt Hill
#
# Bulk Modulus (GPa) = 12.08981 37.21883 24.65432
# Shear Modulus (GPa) = 18.01260 31.79205 24.90232
#
# Velocity S-wave (km/s) = 2.80570 3.72745 3.29893
# Velocity P-wave (km/s) = 3.97234 5.89837 5.02843
#
# Compressibility (1/GPa) = 0.08271427
#
# Stress axis : x y z
#
# Youngs Moduli (GPa) = 85.95116 16.88978 88.94646
#
# Poissons Ratio (x) = -0.09312 0.41712
# Poissons Ratio (y) = -0.47386 0.04525
# Poissons Ratio (z) = 0.40307 0.00859
#
# Static dielectric constant tensor:
#      x y z
#    x 1.886010 -0.015070 -0.021540 
#    y -0.015070 1.902850 -0.061080 
#    z -0.021540 -0.061080 1.881520 
# 
# From -- ./inp_files/307378.got.cif
#   From: 2010.05.17/outbox.cif.g08.bks.cpg/sg2_154_cif.got.tgz:307378.got - 2010.06.03 11:33:40.
