data_PCOD9003065
_publ_section_title
;
Structure prediction by ZEFSAII (Michael W. Deem and Ramdas Pophale) SiO2 
 PCOD9003065
Probable space group: P -1
;
_chemical_formula_sum "Si O2"
_cell_formula_units_Z 16
_cell_length_a 17.964316
_cell_length_b 12.341424
_cell_length_c 12.251959
_cell_angle_alpha 116.185581
_cell_angle_beta 135.154825
_cell_angle_gamma 30.191314
_cell_volume 843.081289
_symmetry_space_group_name_H-M "P -1"
_symmetry_group_IT_number 2
_symmetry_cell_setting 'triclinic'
loop_
_space_group_symop_operation_xyz
x,y,z
-x,-y,-z
loop_
_atom_site_type_symbol
_atom_site_label
_atom_site_fract_x
_atom_site_fract_y
_atom_site_fract_z
Si Si1 0.295926 0.350791 0.432910
Si Si2 0.428545 0.634772 0.658358
Si Si3 0.310324 0.136639 0.513717
Si Si4 0.417740 0.684727 0.915175
Si Si5 0.893687 0.876445 0.575112
Si Si6 0.940992 0.192466 0.696231
Si Si7 0.891491 0.116161 0.822198
Si Si8 0.648501 0.651716 0.275493
O O1 0.210665 0.314143 0.388000
O O2 0.123109 0.608671 0.312946
O O3 0.395960 0.321882 0.629404
O O4 0.478396 0.133688 0.439816
O O5 0.501121 0.580990 0.834183
O O6 0.253581 0.701965 0.494571
O O7 0.638150 0.392097 0.699070
O O8 0.304971 0.877687 0.595444
O O9 0.169468 0.176622 0.443014
O O10 0.365055 0.189828 0.678752
O O11 0.500000 0.500000 0.000000
O O12 0.495291 0.731556 0.071660
O O13 0.160423 0.936832 0.752762
O O14 0.107821 0.634885 0.621851
O O15 0.934028 0.948714 0.729363
O O16 0.973723 0.137492 0.834868
O O17 0.000000 0.000000 0.000000
#
# Coordination Sequence:
#
# PCOD9003065 Si02
#       8
#     2   2   2   2   2   2   2   2
#     4   9  19  38  61  83 112 147 199 232 282 338
#     4  11  22  37  59  87 115 150 194 233 286 347
#     4   9  20  37  64  82 111 152 199 233 283 338
#     4  12  23  37  57  86 123 152 185 242 298 335
#     4  11  20  38  63  83 114 155 197 232 279 350
#     4  11  21  37  61  87 113 151 193 238 283 346
#     4  11  23  38  58  90 119 148 186 239 296 340
#     4  10  21  37  57  86 114 150 195 235 286 335
#
# _framework density 18.978005
#
# number of rings (size 3 to 8) (size 9 to 14) (size 15 to 20)
#    0.750    0.750    0.000    8.250    0.000    1.000 
#    0.000    1.250    2.750    0.000    0.000    0.000 
#    0.000    0.000    0.000    0.000    0.000    0.000 
#
# Total GULP energy -89247.685961 kJ/mol
# GULP energy per Si atom -5577.980373 kJ/mol
# Density = 1.893481 g / cm^3
# Si number density = 18.978005 Si / 1000 Ang^3
#
#
#
# Elastic Constant Matrix: (Units=GPa)
#
#
# Indices 1 2 3 4 5 6 
#
# 1 60.6580 24.7375 7.6702 -4.1925 -8.1536 17.0676
# 2 24.7375 103.5918 15.2372 6.9944 1.8427 -14.0487
# 3 7.6702 15.2372 46.9451 6.6026 -16.5539 1.9702
# 4 -4.1925 6.9944 6.6026 19.2540 -10.3643 -4.7151
# 5 -8.1536 1.8427 -16.5539 -10.3643 30.6817 -7.5244
# 6 17.0676 -14.0487 1.9702 -4.7151 -7.5244 32.9688
#
#
#
# Elastic Compliance Matrix: (Units=1/GPa)
#
#
# Indices 1 2 3 4 5 6 
#
# 1 0.025586 -0.008843 0.000559 0.009023 0.007220 -0.014109
# 2 -0.008843 0.014159 -0.004638 -0.006464 -0.005765 0.008648
# 3 0.000559 -0.004638 0.028209 0.000553 0.015766 -0.000274
# 4 0.009023 -0.006464 0.000553 0.075346 0.031090 0.010412
# 5 0.007220 -0.005765 0.015766 0.031090 0.056361 0.010173
# 6 -0.014109 0.008648 -0.000274 0.010412 0.010173 0.045148
#
#
# Mechanical properties :
#
#
# Convention : Reuss Voigt Hill
#
# Bulk Modulus (GPa) = 23.74750 34.05386 28.90068
# Shear Modulus (GPa) = 17.56308 27.48424 22.52366
#
# Velocity S-wave (km/s) = 3.04541 3.80967 3.44878
# Velocity P-wave (km/s) = 4.99063 6.11018 5.57856
#
# Compressibility (1/GPa) = 0.04210970
#
# Stress axis : x y z
#
# Youngs Moduli (GPa) = 39.08461 70.62675 35.45011
#
# Poissons Ratio (x) = 0.62455 -0.01981
# Poissons Ratio (y) = 0.34562 0.16440
# Poissons Ratio (z) = -0.02184 0.32753
#
# Static dielectric constant tensor:
#      x y z
#    x 1.672270 0.010320 -0.009190 
#    y 0.010320 1.659880 0.007730 
#    z -0.009190 0.007730 1.666910 
# 
# From -- ./inp_files/464684.got.cif
#   From: 2010.05.17/outbox.cif.g08.bks.cpg/sg2_233_cif.got.tgz:464684.got - 2010.06.03 11:33:40.
