data_PCOD9003484
_publ_section_title
;
Structure prediction by ZEFSAII (Michael W. Deem and Ramdas Pophale) SiO2 
 PCOD9003484
Probable space group: P -1
;
_chemical_formula_sum "Si O2"
_cell_formula_units_Z 15
_cell_length_a 7.795222
_cell_length_b 5.420671
_cell_length_c 18.424068
_cell_angle_alpha 73.647764
_cell_angle_beta 51.483996
_cell_angle_gamma 65.431910
_cell_volume 553.710321
_symmetry_space_group_name_H-M "P -1"
_symmetry_group_IT_number 2
_symmetry_cell_setting 'triclinic'
loop_
_space_group_symop_operation_xyz
x,y,z
-x,-y,-z
loop_
_atom_site_type_symbol
_atom_site_label
_atom_site_fract_x
_atom_site_fract_y
_atom_site_fract_z
Si Si1 0.462835 0.209717 0.298577
Si Si2 0.058239 0.683145 0.030694
Si Si3 0.900337 0.427641 0.425729
Si Si4 0.636045 0.286942 0.640992
Si Si5 0.487704 0.301834 0.122739
Si Si6 0.939434 0.981977 0.344452
Si Si7 0.072931 0.805077 0.167773
Si Si8 0.500000 0.000000 0.000000
O O1 0.524453 0.424107 0.314154
O O2 0.562734 0.214842 0.191592
O O3 0.180106 0.328377 0.364665
O O4 0.504881 0.902834 0.334599
O O5 0.340461 0.546664 0.969985
O O6 0.963205 0.701872 0.135442
O O7 0.000000 0.500000 0.000000
O O8 0.000000 0.000000 0.000000
O O9 0.802954 0.326922 0.530963
O O10 0.824318 0.752685 0.415803
O O11 0.837185 0.269518 0.387478
O O12 0.798225 0.136849 0.679327
O O13 0.238935 0.520237 0.178401
O O14 0.490766 0.069262 0.085291
O O15 0.950882 0.971652 0.255477
O O16 0.241615 0.959770 0.077523
#
# Coordination Sequence:
#
# PCOD9003484 Si02
#       8
#     2   2   2   2   2   2   2   1
#     4  10  18  29  48  78 109 154 187 228 279 349
#     4  11  28  45  60  84 121 161 200 252 311 360
#     4  10  17  28  45  77 128 154 171 225 306 354
#     4  10  17  28  45  77 128 154 171 225 306 354
#     4  11  23  38  64  87 117 157 207 254 293 363
#     4  10  18  29  48  78 109 154 187 228 279 349
#     4  11  23  38  64  87 117 157 207 254 293 363
#     4  10  20  32  56  84 104 144 188 254 296 340
#
# _framework density 27.089977000000001
#
# number of rings (size 3 to 8) (size 9 to 14) (size 15 to 20)
#    0.000    1.600    2.667    7.200    7.467    0.000 
#    0.000    0.000    0.000    0.000    0.000    0.000 
#    0.000   36.267    0.000    0.000    0.000    0.000 
#
# Total GULP energy -83751.370287 kJ/mol
# GULP energy per Si atom -5583.424686 kJ/mol
# Density = 2.702832 g / cm^3
# Si number density = 27.089977 Si / 1000 Ang^3
#
#
#
# Elastic Constant Matrix: (Units=GPa)
#
#
# Indices 1 2 3 4 5 6 
#
# 1 76.2319 25.2861 24.1826 12.7749 26.8269 15.9448
# 2 25.2861 126.9097 16.0797 22.6136 18.0586 34.0264
# 3 24.1826 16.0797 142.2332 22.2260 16.1424 11.3346
# 4 12.7749 22.6136 22.2260 41.3272 20.6810 7.8663
# 5 26.8269 18.0586 16.1424 20.6810 36.6204 12.7870
# 6 15.9448 34.0264 11.3346 7.8663 12.7870 51.5813
#
#
#
# Elastic Compliance Matrix: (Units=1/GPa)
#
#
# Indices 1 2 3 4 5 6 
#
# 1 0.018751 -0.001790 -0.001850 0.003100 -0.013306 -0.001383
# 2 -0.001790 0.010501 0.000219 -0.004509 0.000641 -0.005893
# 3 -0.001850 0.000219 0.007953 -0.003739 0.000126 -0.000781
# 4 0.003100 -0.004509 -0.003739 0.037472 -0.020315 0.002159
# 5 -0.013306 0.000641 0.000126 -0.020315 0.050135 -0.005667
# 6 -0.001383 -0.005893 -0.000781 0.002159 -0.005667 0.024949
#
#
# Mechanical properties :
#
#
# Convention : Reuss Voigt Hill
#
# Bulk Modulus (GPa) = 32.93515 52.94130 42.93823
# Shear Modulus (GPa) = 29.98990 44.56087 37.27538
#
# Velocity S-wave (km/s) = 3.33084 4.06016 3.71345
# Velocity P-wave (km/s) = 5.19392 6.44710 5.85414
#
# Compressibility (1/GPa) = 0.03036270
#
# Stress axis : x y z
#
# Youngs Moduli (GPa) = 53.33161 95.23066 125.74301
#
# Poissons Ratio (x) = 0.17043 0.23259
# Poissons Ratio (y) = 0.09545 -0.02750
# Poissons Ratio (z) = 0.09865 -0.02083
#
# Static dielectric constant tensor:
#      x y z
#    x 2.238730 -0.069000 -0.006040 
#    y -0.069000 2.900640 -0.061360 
#    z -0.006040 -0.061360 2.050740 
# 
# From -- ./inp_files/118030.got.cif
#   From: 2010.05.17/outbox.cif.g08.bks.cpg/sg2_60_cif.got.tgz:118030.got - 2010.06.03 11:33:40.
