data_PCOD9003993
_publ_section_title
;
Structure prediction by ZEFSAII (Michael W. Deem and Ramdas Pophale) SiO2 
 PCOD9003993
Probable space group: P -1
;
_chemical_formula_sum "Si O2"
_cell_formula_units_Z 15
_cell_length_a 12.776831
_cell_length_b 8.302026
_cell_length_c 22.011126
_cell_angle_alpha 112.861526
_cell_angle_beta 21.629819
_cell_angle_gamma 98.200195
_cell_volume 607.113871
_symmetry_space_group_name_H-M "P -1"
_symmetry_group_IT_number 2
_symmetry_cell_setting 'triclinic'
loop_
_space_group_symop_operation_xyz
x,y,z
-x,-y,-z
loop_
_atom_site_type_symbol
_atom_site_label
_atom_site_fract_x
_atom_site_fract_y
_atom_site_fract_z
Si Si1 0.632548 0.433953 0.108801
Si Si2 0.930622 0.170587 0.614938
Si Si3 0.396053 0.236687 0.615977
Si Si4 0.686913 0.691577 0.522138
Si Si5 0.378775 0.920196 0.983032
Si Si6 0.411270 0.268594 0.021818
Si Si7 0.771568 0.341807 0.517171
Si Si8 0.500000 0.500000 0.500000
O O1 0.310835 0.589358 0.255443
O O2 0.731560 0.190536 0.016900
O O3 0.471537 0.558607 0.277180
O O4 0.995896 0.386992 0.884535
O O5 0.309448 0.112571 0.425870
O O6 0.673526 0.206964 0.814902
O O7 0.000000 0.000000 0.500000
O O8 0.672992 0.208842 0.512471
O O9 0.382782 0.392695 0.596139
O O10 0.500000 0.000000 0.500000
O O11 0.707559 0.546529 0.545163
O O12 0.418678 0.695521 0.623034
O O13 0.088015 0.535014 0.247272
O O14 0.404437 0.843296 0.027841
O O15 0.791470 0.819482 0.728386
O O16 0.158430 0.190541 0.136459
#
# Coordination Sequence:
#
# PCOD9003993 Si02
#       8
#     2   2   2   2   2   2   2   1
#     4  12  24  42  68  98 135 177 222 280 343 406
#     4  12  25  38  64 102 138 174 221 283 346 401
#     4  11  27  44  72  99 135 184 234 281 343 410
#     4  10  22  41  64  94 130 179 218 286 330 407
#     4  10  22  36  71  95 124 174 226 278 334 400
#     4  10  21  37  63  92 130 163 226 272 335 396
#     4  10  22  43  64  94 139 176 219 277 343 407
#     4  10  24  44  68  92 136 174 230 280 336 396
#
# _framework density 24.707062000000001
#
# number of rings (size 3 to 8) (size 9 to 14) (size 15 to 20)
#    0.000    1.333    2.667    2.800   11.200    1.067 
#    0.000    0.000    0.000    4.800    0.000    0.000 
#    0.000    0.000    0.000    0.000    0.000    0.000 
#
# Total GULP energy -83622.303902 kJ/mol
# GULP energy per Si atom -5574.820260 kJ/mol
# Density = 2.465083 g / cm^3
# Si number density = 24.707062 Si / 1000 Ang^3
#
#
#
# Elastic Constant Matrix: (Units=GPa)
#
#
# Indices 1 2 3 4 5 6 
#
# 1 92.7991 64.7184 47.4865 -18.9496 24.1065 21.8021
# 2 64.7184 149.8127 44.7697 -12.6350 25.4505 34.6489
# 3 47.4865 44.7697 141.6828 -28.8737 36.5701 7.9166
# 4 -18.9496 -12.6350 -28.8737 32.3801 2.0807 -4.5776
# 5 24.1065 25.4505 36.5701 2.0807 39.3090 -4.7318
# 6 21.8021 34.6489 7.9166 -4.5776 -4.7318 41.6170
#
#
#
# Elastic Compliance Matrix: (Units=1/GPa)
#
#
# Indices 1 2 3 4 5 6 
#
# 1 0.020488 -0.004474 -0.000319 0.009645 -0.010737 -0.007107
# 2 -0.004474 0.011444 0.000002 0.001124 -0.005655 -0.007704
# 3 -0.000319 0.000002 0.013062 0.011941 -0.012887 -0.002471
# 4 0.009645 0.001124 0.011941 0.048205 -0.020945 -0.005339
# 5 -0.010737 -0.005655 -0.012887 -0.020945 0.050739 0.016249
# 6 -0.007107 -0.007704 -0.002471 -0.005339 0.016249 0.035897
#
#
# Mechanical properties :
#
#
# Convention : Reuss Voigt Hill
#
# Bulk Modulus (GPa) = 28.23845 77.58266 52.91055
# Shear Modulus (GPa) = 24.84838 37.81589 31.33213
#
# Velocity S-wave (km/s) = 3.17475 3.91649 3.56497
# Velocity P-wave (km/s) = 4.98927 7.20563 6.19733
#
# Compressibility (1/GPa) = 0.03541271
#
# Stress axis : x y z
#
# Youngs Moduli (GPa) = 48.80945 87.37945 76.55756
#
# Poissons Ratio (x) = 0.39095 0.02442
# Poissons Ratio (y) = 0.21838 -0.00018
# Poissons Ratio (z) = 0.01557 -0.00021
#
# Static dielectric constant tensor:
#      x y z
#    x 2.025020 0.011470 -0.025820 
#    y 0.011470 2.052850 0.073950 
#    z -0.025820 0.073950 1.906430 
# 
# From -- ./inp_files/611670.got.cif
#   From: 2010.05.17/outbox.cif.g08.bks.cpg/sg2_306_cif.got.tgz:611670.got - 2010.06.03 11:33:40.
