data_PCOD9003282
_publ_section_title
;
Structure prediction by ZEFSAII (Michael W. Deem and Ramdas Pophale) SiO2 
 PCOD9003282
Probable space group: P -1
;
_chemical_formula_sum "Si O2"
_cell_formula_units_Z 10
_cell_length_a 15.193797
_cell_length_b 9.565710
_cell_length_c 5.299109
_cell_angle_alpha 96.025403
_cell_angle_beta 64.998224
_cell_angle_gamma 49.010373
_cell_volume 436.977038
_symmetry_space_group_name_H-M "P -1"
_symmetry_group_IT_number 2
_symmetry_cell_setting 'triclinic'
loop_
_space_group_symop_operation_xyz
x,y,z
-x,-y,-z
loop_
_atom_site_type_symbol
_atom_site_label
_atom_site_fract_x
_atom_site_fract_y
_atom_site_fract_z
Si Si1 0.524421 0.064943 0.228184
Si Si2 0.897870 0.902420 0.137518
Si Si3 0.172979 0.864462 0.240572
Si Si4 0.235917 0.532324 0.832987
Si Si5 0.855636 0.671459 0.892642
O O1 0.391115 0.331702 0.450602
O O2 0.500000 0.000000 0.500000
O O3 0.500000 0.000000 0.000000
O O4 0.702909 0.904304 0.987517
O O5 0.808049 0.065671 0.517613
O O6 0.920294 0.257568 0.095155
O O7 0.827731 0.043446 0.994293
O O8 0.889338 0.743255 0.090690
O O9 0.267824 0.617002 0.016618
O O10 0.000000 0.000000 0.500000
O O11 0.186920 0.439067 0.998385
O O12 0.000000 0.500000 0.500000
#
# Coordination Sequence:
#
# PCOD9003282 Si02
#       5
#     2   2   2   2   2
#     4  10  23  39  59  89 122 156 197 244 299 356
#     4  11  22  37  60  91 119 152 199 250 293 344
#     4  10  21  37  59  87 119 158 198 238 293 360
#     4  10  21  40  63  88 120 163 201 242 295 361
#     4  11  22  39  64  93 120 155 202 254 297 347
#
# _framework density 22.884497
#
# number of rings (size 3 to 8) (size 9 to 14) (size 15 to 20)
#    0.000    1.600    0.000    6.600    0.000   11.200 
#    0.000    2.000    0.000    0.000    0.000    1.400 
#    0.000    0.000    0.000    0.000    0.000    0.000 
#
# Total GULP energy -55871.262421 kJ/mol
# GULP energy per Si atom -5587.126242 kJ/mol
# Density = 2.283241 g / cm^3
# Si number density = 22.884497 Si / 1000 Ang^3
#
#
#
# Elastic Constant Matrix: (Units=GPa)
#
#
# Indices 1 2 3 4 5 6 
#
# 1 109.8750 43.6831 80.2588 17.5886 28.2863 -1.2181
# 2 43.6831 81.8427 57.6242 -1.4121 24.0873 19.9634
# 3 80.2588 57.6242 199.9163 33.3074 41.7891 -1.4998
# 4 17.5886 -1.4121 33.3074 50.0924 -3.5537 2.2946
# 5 28.2863 24.0873 41.7891 -3.5537 57.4714 12.8421
# 6 -1.2181 19.9634 -1.4998 2.2946 12.8421 39.2593
#
#
#
# Elastic Compliance Matrix: (Units=1/GPa)
#
#
# Indices 1 2 3 4 5 6 
#
# 1 0.015553 -0.006519 -0.002644 -0.004453 -0.004487 0.005424
# 2 -0.006519 0.022300 -0.005271 0.007058 0.000914 -0.012455
# 3 -0.002644 -0.005271 0.009724 -0.006274 -0.005064 0.004993
# 4 -0.004453 0.007058 -0.006274 0.026771 0.007214 -0.007891
# 5 -0.004487 0.000914 -0.005064 0.007214 0.025489 -0.009557
# 6 0.005424 -0.012455 0.004993 -0.007891 -0.009557 0.035751
#
#
# Mechanical properties :
#
#
# Convention : Reuss Voigt Hill
#
# Bulk Modulus (GPa) = 53.45122 83.86290 68.65706
# Shear Modulus (GPa) = 29.29247 43.36913 36.33080
#
# Velocity S-wave (km/s) = 3.58161 4.35803 3.98876
# Velocity P-wave (km/s) = 6.36487 7.87712 7.16103
#
# Compressibility (1/GPa) = 0.01870865
#
# Stress axis : x y z
#
# Youngs Moduli (GPa) = 64.29800 44.84310 102.83583
#
# Poissons Ratio (x) = 0.29232 0.27191
# Poissons Ratio (y) = 0.41914 0.54207
# Poissons Ratio (z) = 0.17001 0.23638
#
# Static dielectric constant tensor:
#      x y z
#    x 1.901550 0.008430 0.021750 
#    y 0.008430 1.961830 0.041470 
#    z 0.021750 0.041470 1.848000 
# 
# From -- ./inp_files/72056.got.cif
#   From: 2010.05.17/outbox.cif.g08.bks.cpg/sg2_37_cif.got.tgz:72056.got - 2010.06.03 11:33:40.
