data_PCOD9003651
_publ_section_title
;
Structure prediction by ZEFSAII (Michael W. Deem and Ramdas Pophale) SiO2 
 PCOD9003651
Probable space group: P -1
;
_chemical_formula_sum "Si O2"
_cell_formula_units_Z 14
_cell_length_a 10.891220
_cell_length_b 23.450013
_cell_length_c 14.387341
_cell_angle_alpha 20.281039
_cell_angle_beta 29.584889
_cell_angle_gamma 26.734602
_cell_volume 560.862158
_symmetry_space_group_name_H-M "P -1"
_symmetry_group_IT_number 2
_symmetry_cell_setting 'triclinic'
loop_
_space_group_symop_operation_xyz
x,y,z
-x,-y,-z
loop_
_atom_site_type_symbol
_atom_site_label
_atom_site_fract_x
_atom_site_fract_y
_atom_site_fract_z
Si Si1 0.263293 0.312769 0.945078
Si Si2 0.967024 0.220626 0.768598
Si Si3 0.419053 0.763846 0.427605
Si Si4 0.156469 0.778307 0.753873
Si Si5 0.933525 0.800273 0.048430
Si Si6 0.615464 0.425463 0.424027
Si Si7 0.373963 0.005261 0.677713
O O1 0.541586 0.284693 0.746767
O O2 0.196012 0.496654 0.768313
O O3 0.035009 0.305154 0.039455
O O4 0.368797 0.142989 0.205816
O O5 0.690831 0.403444 0.644499
O O6 0.030000 0.236698 0.810391
O O7 0.210037 0.170507 0.607992
O O8 0.856969 0.066091 0.078398
O O9 0.734065 0.716312 0.269834
O O10 0.297341 0.654628 0.612560
O O11 0.415964 0.718986 0.606165
O O12 0.237878 0.978944 0.193113
O O13 0.188534 0.739214 0.901937
O O14 0.000000 0.000000 0.500000
O O15 0.500000 0.000000 0.500000
#
# Coordination Sequence:
#
# PCOD9003651 Si02
#       7
#     2   2   2   2   2   2   2
#     4  10  21  42  64  88 129 160 208 254 304 376
#     4  10  23  40  62  90 126 162 201 257 313 359
#     4  10  21  37  61  91 120 165 209 249 306 363
#     4  10  22  37  62  95 117 161 216 253 297 363
#     4  10  21  39  64  88 123 164 212 252 296 372
#     4  10  21  42  62  91 128 167 201 252 319 369
#     4  10  23  41  63  92 120 162 210 255 303 367
#
# _framework density 24.961569999999998
#
# number of rings (size 3 to 8) (size 9 to 14) (size 15 to 20)
#    0.000    2.000    1.429    0.857    8.000    2.286 
#    5.143    0.714    0.000    0.000    0.000    0.000 
#    0.000    0.000    0.000    0.000    0.000    0.000 
#
# Total GULP energy -78165.983054 kJ/mol
# GULP energy per Si atom -5583.284504 kJ/mol
# Density = 2.490476 g / cm^3
# Si number density = 24.961570 Si / 1000 Ang^3
#
#
#
# Elastic Constant Matrix: (Units=GPa)
#
#
# Indices 1 2 3 4 5 6 
#
# 1 127.7451 41.1923 35.5519 8.6961 14.2882 34.3673
# 2 41.1923 72.2059 51.5625 26.0518 22.8050 35.4933
# 3 35.5519 51.5625 70.0777 13.8031 3.8612 13.2584
# 4 8.6961 26.0518 13.8031 30.2835 15.0579 8.2055
# 5 14.2882 22.8050 3.8612 15.0579 59.8639 4.5059
# 6 34.3673 35.4933 13.2584 8.2055 4.5059 43.9338
#
#
#
# Elastic Compliance Matrix: (Units=1/GPa)
#
#
# Indices 1 2 3 4 5 6 
#
# 1 0.011413 0.003988 -0.006809 0.000682 -0.003231 -0.009891
# 2 0.003988 0.100343 -0.056767 -0.034657 -0.022411 -0.058282
# 3 -0.006809 -0.056767 0.050235 0.011884 0.014589 0.032312
# 4 0.000682 -0.034657 0.011884 0.054713 -0.002537 0.013920
# 5 -0.003231 -0.022411 0.014589 -0.002537 0.024643 0.014177
# 6 -0.009891 -0.058282 0.032312 0.013920 0.014177 0.063779
#
#
# Mechanical properties :
#
#
# Convention : Reuss Voigt Hill
#
# Bulk Modulus (GPa) = 23.35647 58.51577 40.93612
# Shear Modulus (GPa) = 11.40059 36.26437 23.83248
#
# Velocity S-wave (km/s) = 2.13943 3.81571 3.09328
# Velocity P-wave (km/s) = 3.93449 6.55027 5.40307
#
# Compressibility (1/GPa) = 0.04281468
#
# Stress axis : x y z
#
# Youngs Moduli (GPa) = 87.61846 9.96580 19.90648
#
# Poissons Ratio (x) = -0.03974 0.13555
# Poissons Ratio (y) = -0.34939 1.13002
# Poissons Ratio (z) = 0.59662 0.56572
#
# Static dielectric constant tensor:
#      x y z
#    x 1.988550 0.066460 0.025390 
#    y 0.066460 2.022300 -0.014920 
#    z 0.025390 -0.014920 2.031870 
# 
# From -- ./inp_files/391120.got.cif
#   From: 2010.05.17/outbox.cif.g08.bks.cpg/sg2_196_cif.got.tgz:391120.got - 2010.06.03 11:33:40.
