data_PCOD9003234
_publ_section_title
;
Structure prediction by ZEFSAII (Michael W. Deem and Ramdas Pophale) SiO2 
 PCOD9003234
Probable space group: P -1
;
_chemical_formula_sum "Si O2"
_cell_formula_units_Z 16
_cell_length_a 13.179574
_cell_length_b 6.612635
_cell_length_c 12.384393
_cell_angle_alpha 109.654916
_cell_angle_beta 133.700357
_cell_angle_gamma 58.009950
_cell_volume 661.036770
_symmetry_space_group_name_H-M "P -1"
_symmetry_group_IT_number 2
_symmetry_cell_setting 'triclinic'
loop_
_space_group_symop_operation_xyz
x,y,z
-x,-y,-z
loop_
_atom_site_type_symbol
_atom_site_label
_atom_site_fract_x
_atom_site_fract_y
_atom_site_fract_z
Si Si1 0.528829 0.231481 0.665346
Si Si2 0.469017 0.335309 0.173312
Si Si3 0.565601 0.727564 0.639520
Si Si4 0.168626 0.535038 0.485068
Si Si5 0.877209 0.285349 0.763896
Si Si6 0.781442 0.151762 0.248890
Si Si7 0.015569 0.747428 0.751777
Si Si8 0.839337 0.698841 0.087937
O O1 0.598792 0.379510 0.811515
O O2 0.514036 0.282918 0.534486
O O3 0.348937 0.342442 0.592207
O O4 0.603178 0.952649 0.690613
O O5 0.542321 0.240626 0.329616
O O6 0.599243 0.255457 0.163019
O O7 0.339641 0.239794 0.050924
O O8 0.728349 0.498840 0.743709
O O9 0.148503 0.632166 0.365638
O O10 0.145450 0.752756 0.585140
O O11 0.067085 0.388638 0.400677
O O12 0.048819 0.266795 0.912171
O O13 0.895266 0.018133 0.739102
O O14 0.839338 0.243758 0.203133
O O15 0.836028 0.872608 0.216144
O O16 0.079254 0.578190 0.870752
#
# Coordination Sequence:
#
# PCOD9003234 Si02
#       8
#     2   2   2   2   2   2   2   2
#     4   9  21  38  61  92 116 145 189 234 293 355
#     4  11  23  38  60  87 118 154 190 236 289 342
#     4  10  21  40  63  86 118 148 186 243 293 340
#     4   9  19  36  59  89 117 145 190 242 292 340
#     4   9  21  39  59  86 117 150 192 239 288 343
#     4  10  22  38  58  87 116 151 197 239 286 342
#     4  10  21  37  59  82 118 158 193 239 284 332
#     4  10  23  40  57  83 117 157 199 235 280 339
#
# _framework density 24.204405000000001
#
# number of rings (size 3 to 8) (size 9 to 14) (size 15 to 20)
#    0.000    2.250    0.000    1.125    0.000   17.500 
#    0.000    1.250    0.000    0.000    0.000    0.000 
#    0.000    0.000    0.000    0.000    0.000    0.000 
#
# Total GULP energy -89335.255992 kJ/mol
# GULP energy per Si atom -5583.453499 kJ/mol
# Density = 2.414931 g / cm^3
# Si number density = 24.204405 Si / 1000 Ang^3
#
#
#
# Elastic Constant Matrix: (Units=GPa)
#
#
# Indices 1 2 3 4 5 6 
#
# 1 86.4315 43.1191 31.4283 11.6762 17.9852 -2.6932
# 2 43.1191 143.6687 26.1656 25.1131 10.6439 -5.7843
# 3 31.4283 26.1656 63.2222 18.7982 30.5213 -6.3519
# 4 11.6762 25.1131 18.7982 22.8918 3.2990 0.5395
# 5 17.9852 10.6439 30.5213 3.2990 36.6637 4.1512
# 6 -2.6932 -5.7843 -6.3519 0.5395 4.1512 31.2375
#
#
#
# Elastic Compliance Matrix: (Units=1/GPa)
#
#
# Indices 1 2 3 4 5 6 
#
# 1 0.015761 -0.003735 -0.005620 0.000971 -0.002031 -0.000222
# 2 -0.003735 0.009744 0.002159 -0.010305 -0.002136 0.002383
# 3 -0.005620 0.002159 0.045168 -0.031999 -0.034199 0.014197
# 4 0.000971 -0.010305 -0.031999 0.077670 0.023615 -0.012811
# 5 -0.002031 -0.002136 -0.034199 0.023615 0.056992 -0.015506
# 6 -0.000222 0.002383 0.014197 -0.012811 -0.015506 0.037604
#
#
# Mechanical properties :
#
#
# Convention : Reuss Voigt Hill
#
# Bulk Modulus (GPa) = 17.76768 54.97203 36.36986
# Shear Modulus (GPa) = 18.11001 30.99923 24.55462
#
# Velocity S-wave (km/s) = 2.73831 3.58261 3.18853
# Velocity P-wave (km/s) = 4.16586 6.31461 5.34924
#
# Compressibility (1/GPa) = 0.05628196
#
# Stress axis : x y z
#
# Youngs Moduli (GPa) = 63.44688 102.62865 22.13950
#
# Poissons Ratio (x) = 0.38333 0.12442
# Poissons Ratio (y) = 0.23698 -0.04780
# Poissons Ratio (z) = 0.35655 -0.22158
#
# Static dielectric constant tensor:
#      x y z
#    x 1.972620 -0.021390 0.035420 
#    y -0.021390 1.914620 0.007400 
#    z 0.035420 0.007400 2.016520 
# 
# From -- ./inp_files/525467.got.cif
#   From: 2010.05.17/outbox.cif.g08.bks.cpg/sg2_263_cif.got.tgz:525467.got - 2010.06.03 11:33:40.
