data_PCOD9003950
_publ_section_title
;
Structure prediction by ZEFSAII (Michael W. Deem and Ramdas Pophale) SiO2 
 PCOD9003950
Probable space group: P -1
;
_chemical_formula_sum "Si O2"
_cell_formula_units_Z 12
_cell_length_a 19.066582
_cell_length_b 22.681468
_cell_length_c 11.667958
_cell_angle_alpha 159.904508
_cell_angle_beta 24.201132
_cell_angle_gamma 162.816785
_cell_volume 506.629452
_symmetry_space_group_name_H-M "P -1"
_symmetry_group_IT_number 2
_symmetry_cell_setting 'triclinic'
loop_
_space_group_symop_operation_xyz
x,y,z
-x,-y,-z
loop_
_atom_site_type_symbol
_atom_site_label
_atom_site_fract_x
_atom_site_fract_y
_atom_site_fract_z
Si Si1 0.439392 0.204093 0.448638
Si Si2 0.841392 0.474758 0.531782
Si Si3 0.811794 0.735044 0.243532
Si Si4 0.813846 0.220620 0.802848
Si Si5 0.336094 0.651519 0.076488
Si Si6 0.507656 0.023129 0.348417
O O1 0.633738 0.391129 0.600110
O O2 0.371588 0.297131 0.626406
O O3 0.198249 0.946540 0.393823
O O4 0.587831 0.168716 0.091665
O O5 0.079007 0.565929 0.286034
O O6 0.726593 0.230587 0.321261
O O7 0.903791 0.655416 0.868289
O O8 0.703413 0.561061 0.198359
O O9 0.000000 0.000000 0.500000
O O10 0.728995 0.081822 0.556540
O O11 0.000000 0.500000 0.000000
O O12 0.481166 0.806592 0.030044
O O13 0.465218 0.841800 0.334381
#
# Coordination Sequence:
#
# PCOD9003950 Si02
#       6
#     2   2   2   2   2   2
#     4  10  23  39  61  88 123 158 201 246 302 356
#     4  10  21  42  66  82 120 167 202 238 298 363
#     4  11  24  36  62  95 126 153 197 254 309 347
#     4  10  21  37  63  88 119 160 206 245 295 359
#     4  10  21  39  64  87 121 161 201 243 300 362
#     4   9  19  35  62  88 113 156 209 239 287 358
#
# _framework density 23.685950999999999
#
# number of rings (size 3 to 8) (size 9 to 14) (size 15 to 20)
#    0.000    2.000    0.000    3.500   11.667    0.000 
#    0.000    7.500    0.000   17.000    0.000    0.000 
#    0.000    0.000    0.000    0.000    0.000    0.000 
#
# Total GULP energy -66852.266330 kJ/mol
# GULP energy per Si atom -5571.022194 kJ/mol
# Density = 2.363204 g / cm^3
# Si number density = 23.685951 Si / 1000 Ang^3
#
#
#
# Elastic Constant Matrix: (Units=GPa)
#
#
# Indices 1 2 3 4 5 6 
#
# 1 145.2071 42.7295 43.0871 17.0779 -14.3257 4.7766
# 2 42.7295 80.7395 38.8636 30.4866 -9.1623 -15.5561
# 3 43.0871 38.8636 83.5657 31.3932 -9.7087 1.6762
# 4 17.0779 30.4866 31.3932 35.3142 1.5368 -7.0042
# 5 -14.3257 -9.1623 -9.7087 1.5368 53.6732 13.4800
# 6 4.7766 -15.5561 1.6762 -7.0042 13.4800 41.1726
#
#
#
# Elastic Compliance Matrix: (Units=1/GPa)
#
#
# Indices 1 2 3 4 5 6 
#
# 1 0.009142 -0.004229 -0.002887 0.001123 0.001911 -0.002976
# 2 -0.004229 0.022618 -0.003447 -0.013127 0.000807 0.006679
# 3 -0.002887 -0.003447 0.021947 -0.016569 0.004642 -0.006200
# 4 0.001123 -0.013127 -0.016569 0.055765 -0.008508 0.007857
# 5 0.001911 0.000807 0.004642 -0.008508 0.022612 -0.008956
# 6 -0.002976 0.006679 -0.006200 0.007857 -0.008956 0.031678
#
#
# Mechanical properties :
#
#
# Convention : Reuss Voigt Hill
#
# Bulk Modulus (GPa) = 30.69354 62.09698 46.39526
# Shear Modulus (GPa) = 25.54296 38.35414 31.94855
#
# Velocity S-wave (km/s) = 3.28746 4.02839 3.67664
# Velocity P-wave (km/s) = 5.23417 6.92177 6.13627
#
# Compressibility (1/GPa) = 0.03258015
#
# Stress axis : x y z
#
# Youngs Moduli (GPa) = 109.38231 44.21253 45.56461
#
# Poissons Ratio (x) = 0.18698 0.13155
# Poissons Ratio (y) = 0.46259 0.15707
# Poissons Ratio (z) = 0.31581 0.15241
#
# Static dielectric constant tensor:
#      x y z
#    x 2.040310 -0.014590 -0.004720 
#    y -0.014590 1.942710 0.090140 
#    z -0.004720 0.090140 1.906310 
# 
# From -- ./inp_files/377491.got.cif
#   From: 2010.05.17/outbox.cif.g08.bks.cpg/sg2_189_cif.got.tgz:377491.got - 2010.06.03 11:33:40.
