data_PCOD9003476
_publ_section_title
;
Structure prediction by ZEFSAII (Michael W. Deem and Ramdas Pophale) SiO2 
 PCOD9003476
Probable space group: P -1
;
_chemical_formula_sum "Si O2"
_cell_formula_units_Z 16
_cell_length_a 18.126888
_cell_length_b 11.895237
_cell_length_c 9.576928
_cell_angle_alpha 81.830681
_cell_angle_beta 123.269552
_cell_angle_gamma 143.876590
_cell_volume 805.997342
_symmetry_space_group_name_H-M "P -1"
_symmetry_group_IT_number 2
_symmetry_cell_setting 'triclinic'
loop_
_space_group_symop_operation_xyz
x,y,z
-x,-y,-z
loop_
_atom_site_type_symbol
_atom_site_label
_atom_site_fract_x
_atom_site_fract_y
_atom_site_fract_z
Si Si1 0.167947 0.460135 0.504411
Si Si2 0.682428 0.159821 0.238034
Si Si3 0.752296 0.101563 0.812748
Si Si4 0.489020 0.206602 0.650011
Si Si5 0.507575 0.605362 0.154195
Si Si6 0.250523 0.959377 0.866482
Si Si7 0.222345 0.272754 0.687768
Si Si8 0.194358 0.570249 0.200959
O O1 0.248704 0.433602 0.644897
O O2 0.230875 0.567058 0.396082
O O3 0.944188 0.195492 0.310949
O O4 0.627875 0.912585 0.592273
O O5 0.784801 0.201072 0.219298
O O6 0.624986 0.009436 0.329811
O O7 0.785149 0.384452 0.369319
O O8 0.500000 0.000000 0.000000
O O9 0.741817 0.226546 0.775655
O O10 0.691520 0.994388 0.922531
O O11 0.971614 0.317579 0.986000
O O12 0.515366 0.354355 0.732697
O O13 0.685026 0.368832 0.789015
O O14 0.653346 0.666736 0.294258
O O15 0.601935 0.803889 0.112130
O O16 0.313642 0.353422 0.921098
O O17 0.000000 0.000000 0.500000
#
# Coordination Sequence:
#
# PCOD9003476 Si02
#       8
#     2   2   2   2   2   2   2   2
#     4  11  21  38  62  89 121 164 202 253 305 355
#     4  11  22  35  56  97 127 158 200 247 305 365
#     4  10  21  37  60  89 130 165 196 235 301 376
#     4  11  22  39  62  89 130 159 193 251 302 366
#     4  10  24  43  64  95 115 155 214 252 306 360
#     4  10  21  38  62  94 124 156 202 249 300 370
#     4  11  23  43  67  87 117 160 207 262 304 350
#     4  10  22  36  57  92 127 166 198 236 300 375
#
# _framework density 19.851182000000001
#
# number of rings (size 3 to 8) (size 9 to 14) (size 15 to 20)
#    0.000    1.500    2.500    3.000    3.500    1.000 
#    4.500    0.625    0.000    2.250    0.000    0.000 
#    0.000    0.000    0.000    0.000    0.000    0.000 
#
# Total GULP energy -89420.855633 kJ/mol
# GULP energy per Si atom -5588.803477 kJ/mol
# Density = 1.980600 g / cm^3
# Si number density = 19.851182 Si / 1000 Ang^3
#
#
#
# Elastic Constant Matrix: (Units=GPa)
#
#
# Indices 1 2 3 4 5 6 
#
# 1 157.0869 13.1043 67.2366 -3.9930 -0.0266 -4.8065
# 2 13.1043 25.5834 24.4320 -1.6352 -2.5741 1.3145
# 3 67.2366 24.4320 100.8628 -1.8942 8.0289 1.1202
# 4 -3.9930 -1.6352 -1.8942 29.7079 -3.4525 -0.5464
# 5 -0.0266 -2.5741 8.0289 -3.4525 30.0220 -6.3236
# 6 -4.8065 1.3145 1.1202 -0.5464 -6.3236 29.6704
#
#
#
# Elastic Compliance Matrix: (Units=1/GPa)
#
#
# Indices 1 2 3 4 5 6 
#
# 1 0.009234 0.002057 -0.006865 0.001265 0.002640 0.002250
# 2 0.002057 0.053443 -0.014983 0.003328 0.009085 0.000529
# 3 -0.006865 -0.014983 0.018682 -0.001421 -0.007014 -0.002675
# 4 0.001265 0.003328 -0.001421 0.034541 0.005021 0.001817
# 5 0.002640 0.009085 -0.007014 0.005021 0.038345 0.008555
# 6 0.002250 0.000529 -0.002675 0.001817 0.008555 0.036002
#
#
# Mechanical properties :
#
#
# Convention : Reuss Voigt Hill
#
# Bulk Modulus (GPa) = 23.93733 54.78657 39.36195
# Shear Modulus (GPa) = 20.51234 29.79741 25.15487
#
# Velocity S-wave (km/s) = 3.21799 3.87853 3.56360
# Velocity P-wave (km/s) = 5.08841 6.90767 6.06662
#
# Compressibility (1/GPa) = 0.04177575
#
# Stress axis : x y z
#
# Youngs Moduli (GPa) = 108.29224 18.71159 53.52794
#
# Poissons Ratio (x) = -0.03850 0.36749
# Poissons Ratio (y) = -0.22279 0.80204
# Poissons Ratio (z) = 0.74347 0.28036
#
# Static dielectric constant tensor:
#      x y z
#    x 1.698060 -0.006080 0.008830 
#    y -0.006080 1.713170 0.026170 
#    z 0.008830 0.026170 1.708480 
# 
# From -- ./inp_files/464594.got.cif
#   From: 2010.05.17/outbox.cif.g08.bks.cpg/sg2_233_cif.got.tgz:464594.got - 2010.06.03 11:33:40.
