data_PCOD9003423
_publ_section_title
;
Structure prediction by ZEFSAII (Michael W. Deem and Ramdas Pophale) SiO2 
 PCOD9003423
Probable space group: P -1
;
_chemical_formula_sum "Si O2"
_cell_formula_units_Z 10
_cell_length_a 9.341756
_cell_length_b 9.052161
_cell_length_c 9.849969
_cell_angle_alpha 62.631240
_cell_angle_beta 108.020771
_cell_angle_gamma 131.910076
_cell_volume 550.483865
_symmetry_space_group_name_H-M "P -1"
_symmetry_group_IT_number 2
_symmetry_cell_setting 'triclinic'
loop_
_space_group_symop_operation_xyz
x,y,z
-x,-y,-z
loop_
_atom_site_type_symbol
_atom_site_label
_atom_site_fract_x
_atom_site_fract_y
_atom_site_fract_z
Si Si1 0.493443 0.131713 0.674646
Si Si2 0.222241 0.529123 0.177027
Si Si3 0.199824 0.226447 0.496798
Si Si4 0.192822 0.528684 0.570873
Si Si5 0.207179 0.626791 0.830472
O O1 0.630126 0.247340 0.797042
O O2 0.353342 0.193911 0.595972
O O3 0.633739 0.244663 0.538668
O O4 0.364244 0.879848 0.751980
O O5 0.257979 0.373743 0.319362
O O6 0.004605 0.434863 0.191629
O O7 0.242243 0.554024 0.011405
O O8 0.182788 0.350930 0.558788
O O9 0.000000 0.000000 0.500000
O O10 0.213329 0.522271 0.740328
O O11 0.000000 0.500000 0.500000
#
# Coordination Sequence:
#
# PCOD9003423 Si02
#       5
#     2   2   2   2   2
#     4  11  21  39  63  84 116 159 192 232 297 344
#     4  10  21  37  60  86 121 149 194 235 293 343
#     4  11  21  40  61  85 117 159 193 233 292 348
#     4  11  20  37  60  90 115 149 202 239 275 349
#     4  11  21  37  61  89 116 151 194 244 283 339
#
# _framework density 18.165835999999999
#
# number of rings (size 3 to 8) (size 9 to 14) (size 15 to 20)
#    0.000    1.200    6.000    3.600    0.000    0.000 
#    0.000    5.000    0.000    0.000    0.000    0.000 
#    0.000    0.000    0.000    0.000    0.000    0.000 
#
# Total GULP energy -55842.446536 kJ/mol
# GULP energy per Si atom -5584.244654 kJ/mol
# Density = 1.812449 g / cm^3
# Si number density = 18.165836 Si / 1000 Ang^3
#
#
#
# Elastic Constant Matrix: (Units=GPa)
#
#
# Indices 1 2 3 4 5 6 
#
# 1 53.5430 36.1732 25.7532 -5.1371 -17.6770 12.8099
# 2 36.1732 127.8252 58.6341 -1.3301 -10.0045 12.1476
# 3 25.7532 58.6341 146.8707 23.9997 -28.7018 -12.7928
# 4 -5.1371 -1.3301 23.9997 26.9924 0.5620 4.8760
# 5 -17.6770 -10.0045 -28.7018 0.5620 23.2594 -0.3617
# 6 12.8099 12.1476 -12.7928 4.8760 -0.3617 29.2621
#
#
#
# Elastic Compliance Matrix: (Units=1/GPa)
#
#
# Indices 1 2 3 4 5 6 
#
# 1 0.035808 -0.004913 -0.004177 0.013026 0.019361 -0.017393
# 2 -0.004913 0.013251 -0.008301 0.008824 -0.008624 -0.008556
# 3 -0.004177 -0.008301 0.019603 -0.022224 0.018258 0.017774
# 4 0.013026 0.008824 -0.022224 0.065504 -0.015782 -0.030191
# 5 0.019361 -0.008624 0.018258 -0.015782 0.077013 0.006669
# 6 -0.017393 -0.008556 0.017774 -0.030191 0.006669 0.058223
#
#
# Mechanical properties :
#
#
# Convention : Reuss Voigt Hill
#
# Bulk Modulus (GPa) = 29.51715 63.26219 46.38967
# Shear Modulus (GPa) = 15.84890 29.74799 22.79845
#
# Velocity S-wave (km/s) = 2.95694 4.05109 3.54647
# Velocity P-wave (km/s) = 5.28602 7.53540 6.50862
#
# Compressibility (1/GPa) = 0.03387861
#
# Stress axis : x y z
#
# Youngs Moduli (GPa) = 27.92679 75.46372 51.01270
#
# Poissons Ratio (x) = 0.37079 0.21309
# Poissons Ratio (y) = 0.13722 0.42347
# Poissons Ratio (z) = 0.11665 0.62644
#
# Static dielectric constant tensor:
#      x y z
#    x 1.606470 0.022540 -0.005300 
#    y 0.022540 1.627110 0.012480 
#    z -0.005300 0.012480 1.622930 
# 
# From -- ./inp_files/144028.got.cif
#   From: 2010.05.17/outbox.cif.g08.bks.cpg/sg2_73_cif.got.tgz:144028.got - 2010.06.03 11:33:40.
