data_PCOD9003256
_publ_section_title
;
Structure prediction by ZEFSAII (Michael W. Deem and Ramdas Pophale) SiO2 
 PCOD9003256
Probable space group: P -1
;
_chemical_formula_sum "Si O2"
_cell_formula_units_Z 16
_cell_length_a 15.038375
_cell_length_b 8.880349
_cell_length_c 13.189429
_cell_angle_alpha 114.007883
_cell_angle_beta 129.590565
_cell_angle_gamma 107.596545
_cell_volume 747.604427
_symmetry_space_group_name_H-M "P -1"
_symmetry_group_IT_number 2
_symmetry_cell_setting 'triclinic'
loop_
_space_group_symop_operation_xyz
x,y,z
-x,-y,-z
loop_
_atom_site_type_symbol
_atom_site_label
_atom_site_fract_x
_atom_site_fract_y
_atom_site_fract_z
Si Si1 0.651998 0.789252 0.506992
Si Si2 0.340448 0.592536 0.078183
Si Si3 0.917039 0.010801 0.574342
Si Si4 0.607103 0.797309 0.156575
Si Si5 0.573998 0.325655 0.362989
Si Si6 0.161307 0.451955 0.570739
Si Si7 0.739829 0.105774 0.134398
Si Si8 0.406552 0.989156 0.336025
O O1 0.463289 0.632156 0.262945
O O2 0.615285 0.566682 0.463461
O O3 0.693392 0.967436 0.674191
O O4 0.821828 0.968712 0.597620
O O5 0.487685 0.772609 0.140928
O O6 0.289805 0.715310 0.117447
O O7 0.144902 0.281530 0.819270
O O8 0.818710 0.004202 0.411980
O O9 0.850264 0.744588 0.446123
O O10 0.621428 0.886690 0.080084
O O11 0.500000 0.500000 0.000000
O O12 0.716214 0.412944 0.406523
O O13 0.568725 0.237906 0.444700
O O14 0.365122 0.056964 0.089601
O O15 0.242963 0.681798 0.769185
O O16 0.949766 0.268855 0.337118
O O17 0.500000 0.000000 0.500000
#
# Coordination Sequence:
#
# PCOD9003256 Si02
#       8
#     2   2   2   2   2   2   2   2
#     4   9  20  39  60  85 113 148 193 241 288 337
#     4  10  21  38  59  86 119 153 192 236 282 336
#     4  10  21  37  59  85 117 156 193 231 281 337
#     4  11  22  36  57  87 122 156 192 231 276 336
#     4  11  21  39  62  81 113 152 190 234 287 342
#     4  10  22  38  57  85 119 153 191 231 276 336
#     4  11  23  37  56  86 119 153 192 231 276 337
#     4  10  22  40  63  86 111 146 190 244 298 341
#
# _framework density 21.401693999999999
#
# number of rings (size 3 to 8) (size 9 to 14) (size 15 to 20)
#    0.000    1.750    0.000    5.250    0.000    6.500 
#    0.000    2.500    0.000    9.000    0.000    0.000 
#    0.000    0.000    0.000    0.000    0.000    0.000 
#
# Total GULP energy -89522.087121 kJ/mol
# GULP energy per Si atom -5595.130445 kJ/mol
# Density = 2.135298 g / cm^3
# Si number density = 21.401694 Si / 1000 Ang^3
#
#
#
# Elastic Constant Matrix: (Units=GPa)
#
#
# Indices 1 2 3 4 5 6 
#
# 1 93.8041 16.9722 8.1462 -2.2060 -7.5757 -17.0284
# 2 16.9722 91.0235 20.5518 -11.9036 -3.0386 6.7817
# 3 8.1462 20.5518 42.3019 -3.1852 13.5707 2.3719
# 4 -2.2060 -11.9036 -3.1852 26.3883 -1.0270 -8.8482
# 5 -7.5757 -3.0386 13.5707 -1.0270 34.1320 5.4686
# 6 -17.0284 6.7817 2.3719 -8.8482 5.4686 26.5497
#
#
#
# Elastic Compliance Matrix: (Units=1/GPa)
#
#
# Indices 1 2 3 4 5 6 
#
# 1 0.013340 -0.002143 -0.002577 0.003262 0.002299 0.009948
# 2 -0.002143 0.014003 -0.007276 0.004148 0.004401 -0.003826
# 3 -0.002577 -0.007276 0.032156 -0.000098 -0.014039 0.000191
# 4 0.003262 0.004148 -0.000098 0.045460 -0.000097 0.016212
# 5 0.002299 0.004401 -0.014039 -0.000097 0.036739 -0.005995
# 6 0.009948 -0.003826 0.000191 0.016212 -0.005995 0.051643
#
#
# Mechanical properties :
#
#
# Convention : Reuss Voigt Hill
#
# Bulk Modulus (GPa) = 28.16356 35.38556 31.77456
# Shear Modulus (GPa) = 21.81785 29.51129 25.66457
#
# Velocity S-wave (km/s) = 3.19634 3.71741 3.46668
# Velocity P-wave (km/s) = 5.17785 5.91570 5.55903
#
# Compressibility (1/GPa) = 0.03550688
#
# Stress axis : x y z
#
# Youngs Moduli (GPa) = 74.96064 71.41373 31.09821
#
# Poissons Ratio (x) = 0.15306 0.08016
# Poissons Ratio (y) = 0.16066 0.22626
# Poissons Ratio (z) = 0.19321 0.51957
#
# Static dielectric constant tensor:
#      x y z
#    x 1.801750 -0.019180 -0.009970 
#    y -0.019180 1.777120 0.002930 
#    z -0.009970 0.002930 1.749440 
# 
# From -- ./inp_files/333292.got.cif
#   From: 2010.05.17/outbox.cif.g08.bks.cpg/sg2_167_cif.got.tgz:333292.got - 2010.06.03 11:33:40.
