data_PCOD9003888
_publ_section_title
;
Structure prediction by ZEFSAII (Michael W. Deem and Ramdas Pophale) SiO2 
 PCOD9003888
Probable space group: P -1
;
_chemical_formula_sum "Si O2"
_cell_formula_units_Z 16
_cell_length_a 14.256164
_cell_length_b 8.014197
_cell_length_c 10.496161
_cell_angle_alpha 63.539905
_cell_angle_beta 50.751403
_cell_angle_gamma 47.726287
_cell_volume 686.744543
_symmetry_space_group_name_H-M "P -1"
_symmetry_group_IT_number 2
_symmetry_cell_setting 'triclinic'
loop_
_space_group_symop_operation_xyz
x,y,z
-x,-y,-z
loop_
_atom_site_type_symbol
_atom_site_label
_atom_site_fract_x
_atom_site_fract_y
_atom_site_fract_z
Si Si1 0.298372 0.278399 0.831393
Si Si2 0.120698 0.881829 0.190506
Si Si3 0.892994 0.840667 0.118886
Si Si4 0.415549 0.467851 0.972587
Si Si5 0.324477 0.681236 0.717992
Si Si6 0.318462 0.997776 0.135308
Si Si7 0.369894 0.964966 0.398324
Si Si8 0.939232 0.703160 0.386940
O O1 0.197226 0.250382 0.833405
O O2 0.274135 0.519962 0.774092
O O3 0.468025 0.093912 0.711104
O O4 0.277460 0.210720 0.013091
O O5 0.210104 0.927290 0.201024
O O6 0.989216 0.859413 0.349465
O O7 0.246821 0.638668 0.101278
O O8 0.058304 0.080852 0.071484
O O9 0.990251 0.671722 0.206185
O O10 0.795416 0.079735 0.195464
O O11 0.431008 0.546810 0.792540
O O12 0.510374 0.198415 0.975693
O O13 0.500000 0.500000 0.000000
O O14 0.380902 0.752059 0.526618
O O15 0.315360 0.011169 0.284389
O O16 0.235483 0.181022 0.510902
O O17 0.000000 0.500000 0.500000
#
# Coordination Sequence:
#
# PCOD9003888 Si02
#       8
#     2   2   2   2   2   2   2   2
#     4  11  22  39  68  97 124 166 210 270 319 371
#     4   9  20  40  64  85 126 172 213 253 310 379
#     4   9  22  44  66  92 122 166 223 259 309 377
#     4   9  18  35  62  92 119 161 212 254 308 365
#     4  10  21  38  61  95 130 161 200 263 330 367
#     4  10  21  37  62  96 123 162 214 265 316 369
#     4  11  24  39  61  95 137 162 204 265 325 382
#     4  11  25  41  60  91 128 176 207 255 320 381
#
# _framework density 23.29833
#
# number of rings (size 3 to 8) (size 9 to 14) (size 15 to 20)
#    0.000    2.000    1.250    1.875    1.750    4.500 
#    2.250    1.250    0.000   10.500    0.000    0.000 
#    0.000    0.000    0.000    0.000    0.000    0.000 
#
# Total GULP energy -89276.238488 kJ/mol
# GULP energy per Si atom -5579.764905 kJ/mol
# Density = 2.324530 g / cm^3
# Si number density = 23.298330 Si / 1000 Ang^3
#
#
#
# Elastic Constant Matrix: (Units=GPa)
#
#
# Indices 1 2 3 4 5 6 
#
# 1 145.1821 19.2004 50.6225 -20.3229 -0.7403 -0.8582
# 2 19.2004 58.0893 23.6580 -10.1954 4.3042 -15.2023
# 3 50.6225 23.6580 99.2315 -37.1577 -0.8188 -4.2219
# 4 -20.3229 -10.1954 -37.1577 42.4106 -5.7342 1.7626
# 5 -0.7403 4.3042 -0.8188 -5.7342 25.4136 -9.3832
# 6 -0.8582 -15.2023 -4.2219 1.7626 -9.3832 30.5828
#
#
#
# Elastic Compliance Matrix: (Units=1/GPa)
#
#
# Indices 1 2 3 4 5 6 
#
# 1 0.008478 -0.001422 -0.003893 0.000362 0.000073 -0.001005
# 2 -0.001422 0.022089 -0.003747 0.000934 0.000153 0.010416
# 3 -0.003893 -0.003747 0.018195 0.013755 0.004644 0.001172
# 4 0.000362 0.000934 0.013755 0.037231 0.009902 0.003266
# 5 0.000073 0.000153 0.004644 0.009902 0.047099 0.014599
# 6 -0.001005 0.010416 0.001172 0.003266 0.014599 0.042301
#
#
# Mechanical properties :
#
#
# Convention : Reuss Voigt Hill
#
# Bulk Modulus (GPa) = 32.63698 54.38498 43.51098
# Shear Modulus (GPa) = 24.54222 33.61622 29.07922
#
# Velocity S-wave (km/s) = 3.24912 3.80262 3.53671
# Velocity P-wave (km/s) = 5.30230 6.53249 5.94928
#
# Compressibility (1/GPa) = 0.03064009
#
# Stress axis : x y z
#
# Youngs Moduli (GPa) = 117.94679 45.27053 54.95910
#
# Poissons Ratio (x) = 0.06436 0.21395
# Poissons Ratio (y) = 0.16769 0.20593
# Poissons Ratio (z) = 0.45915 0.16963
#
# Static dielectric constant tensor:
#      x y z
#    x 1.826670 -0.033650 -0.082080 
#    y -0.033650 1.942520 -0.013830 
#    z -0.082080 -0.013830 1.688980 
# 
# From -- ./inp_files/446777.got.cif
#   From: 2010.05.17/outbox.cif.g08.bks.cpg/sg2_224_cif.got.tgz:446777.got - 2010.06.03 11:33:40.
