data_PCOD9003034
_publ_section_title
;
Structure prediction by ZEFSAII (Michael W. Deem and Ramdas Pophale) SiO2 
 PCOD9003034
Probable space group: P -1
;
_chemical_formula_sum "Si O2"
_cell_formula_units_Z 12
_cell_length_a 15.925351
_cell_length_b 31.799189
_cell_length_c 9.473619
_cell_angle_alpha 150.342495
_cell_angle_beta 142.745036
_cell_angle_gamma 17.442799
_cell_volume 693.652073
_symmetry_space_group_name_H-M "P -1"
_symmetry_group_IT_number 2
_symmetry_cell_setting 'triclinic'
loop_
_space_group_symop_operation_xyz
x,y,z
-x,-y,-z
loop_
_atom_site_type_symbol
_atom_site_label
_atom_site_fract_x
_atom_site_fract_y
_atom_site_fract_z
Si Si1 0.659256 0.685896 0.733604
Si Si2 0.129468 0.708889 0.212765
Si Si3 0.269597 0.522540 0.620217
Si Si4 0.510459 0.589632 0.717331
Si Si5 0.921768 0.954794 0.842948
Si Si6 0.775356 0.511897 0.123208
O O1 0.774759 0.548349 0.588730
O O2 0.623002 0.658823 0.455336
O O3 0.902227 0.626577 0.869645
O O4 0.365254 0.878372 0.965330
O O5 0.408366 0.620593 0.318924
O O6 0.895275 0.893461 0.513147
O O7 0.073154 0.694961 0.945970
O O8 0.210536 0.587318 0.070412
O O9 0.280327 0.519528 0.457421
O O10 0.500000 0.500000 0.500000
O O11 0.195598 0.784564 0.809561
O O12 0.620498 0.587336 0.986617
O O13 0.000000 0.000000 0.000000
#
# Coordination Sequence:
#
# PCOD9003034 Si02
#       6
#     2   2   2   2   2   2
#     4  10  21  37  57  83 115 149 183 227 284 335
#     4   9  17  33  56  76 107 151 185 214 273 342
#     4   9  17  33  56  76 107 151 185 214 273 342
#     4  11  20  35  58  87 109 144 192 232 271 324
#     4  11  20  35  58  87 109 144 192 232 271 324
#     4  10  21  37  57  83 115 149 183 227 284 335
#
# _framework density 17.299741000000001
#
# number of rings (size 3 to 8) (size 9 to 14) (size 15 to 20)
#    0.000    2.000    6.667    0.000    0.000    2.000 
#    0.000    0.000    0.000    1.000    0.000    0.000 
#    0.000    0.000    0.000    0.000    0.000    0.000 
#
# Total GULP energy -66863.892701 kJ/mol
# GULP energy per Si atom -5571.991058 kJ/mol
# Density = 1.726037 g / cm^3
# Si number density = 17.299741 Si / 1000 Ang^3
#
#
#
# Elastic Constant Matrix: (Units=GPa)
#
#
# Indices 1 2 3 4 5 6 
#
# 1 87.0069 26.8691 37.6777 0.4260 -18.1860 3.3181
# 2 26.8691 38.6540 45.1902 7.1393 -13.2411 0.9900
# 3 37.6777 45.1902 123.9905 15.3435 -38.7121 -3.7333
# 4 0.4260 7.1393 15.3435 23.9002 -0.3595 -6.1003
# 5 -18.1860 -13.2411 -38.7121 -0.3595 47.5737 -1.1462
# 6 3.3181 0.9900 -3.7333 -6.1003 -1.1462 26.7424
#
#
#
# Elastic Compliance Matrix: (Units=1/GPa)
#
#
# Indices 1 2 3 4 5 6 
#
# 1 0.015275 -0.009248 -0.000845 0.002839 0.002577 -0.000913
# 2 -0.009248 0.051551 -0.016135 -0.006062 -0.002471 -0.004502
# 3 -0.000845 -0.016135 0.018128 -0.006073 0.009946 0.002274
# 4 0.002839 -0.006062 -0.006073 0.050036 -0.004919 0.010227
# 5 0.002577 -0.002471 0.009946 -0.004919 0.029405 0.001298
# 6 -0.000913 -0.004502 0.002274 0.010227 0.001298 0.040380
#
#
# Mechanical properties :
#
#
# Convention : Reuss Voigt Hill
#
# Bulk Modulus (GPa) = 30.77201 52.12505 41.44853
# Shear Modulus (GPa) = 18.65228 28.97087 23.81157
#
# Velocity S-wave (km/s) = 3.28713 4.09668 3.71403
# Velocity P-wave (km/s) = 5.67742 7.25072 6.51176
#
# Compressibility (1/GPa) = 0.03249707
#
# Stress axis : x y z
#
# Youngs Moduli (GPa) = 65.46748 19.39833 55.16268
#
# Poissons Ratio (x) = 0.17939 0.04664
# Poissons Ratio (y) = 0.60541 0.89007
# Poissons Ratio (z) = 0.05535 0.31300
#
# Static dielectric constant tensor:
#      x y z
#    x 1.597400 -0.001450 -0.033840 
#    y -0.001450 1.555250 -0.005390 
#    z -0.033840 -0.005390 1.633310 
# 
# From -- ./inp_files/145143.got.cif
#   From: 2010.05.17/outbox.cif.g08.bks.cpg/sg2_73_cif.got.tgz:145143.got - 2010.06.03 11:33:40.
