data_PCOD9003210
_publ_section_title
;
Structure prediction by ZEFSAII (Michael W. Deem and Ramdas Pophale) SiO2 
 PCOD9003210
Probable space group: P -1
;
_chemical_formula_sum "Si O2"
_cell_formula_units_Z 14
_cell_length_a 8.622192
_cell_length_b 7.201892
_cell_length_c 18.694427
_cell_angle_alpha 120.154118
_cell_angle_beta 130.139167
_cell_angle_gamma 96.213051
_cell_volume 580.765451
_symmetry_space_group_name_H-M "P -1"
_symmetry_group_IT_number 2
_symmetry_cell_setting 'triclinic'
loop_
_space_group_symop_operation_xyz
x,y,z
-x,-y,-z
loop_
_atom_site_type_symbol
_atom_site_label
_atom_site_fract_x
_atom_site_fract_y
_atom_site_fract_z
Si Si1 0.447143 0.405166 0.251740
Si Si2 0.348663 0.057095 0.883602
Si Si3 0.088404 0.422371 0.663849
Si Si4 0.167958 0.790708 0.146827
Si Si5 0.910658 0.055629 0.064833
Si Si6 0.098957 0.330402 0.814734
Si Si7 0.285508 0.711301 0.587922
O O1 0.719991 0.620423 0.327850
O O2 0.567361 0.405056 0.363653
O O3 0.281391 0.130521 0.094726
O O4 0.186887 0.371035 0.187394
O O5 0.263829 0.989991 0.929075
O O6 0.195619 0.151720 0.820076
O O7 0.243714 0.758219 0.765924
O O8 0.658278 0.342020 0.025304
O O9 0.053952 0.339921 0.719985
O O10 0.803697 0.275189 0.514088
O O11 0.033083 0.917035 0.103604
O O12 0.136052 0.791926 0.222547
O O13 0.479029 0.967437 0.254937
O O14 0.000000 0.500000 0.000000
O O15 0.000000 0.500000 0.500000
#
# Coordination Sequence:
#
# PCOD9003210 Si02
#       7
#     2   2   2   2   2   2   2
#     4   9  18  34  57  82 117 155 200 247 287 355
#     4  10  21  37  58  91 122 156 202 255 303 355
#     4  11  21  37  64  85 121 169 198 241 316 361
#     4  10  22  38  60  88 123 159 202 258 305 352
#     4   9  18  34  55  86 117 150 204 250 292 350
#     4  10  22  36  59  91 125 151 206 257 295 363
#     4   9  21  38  57  88 121 161 205 242 300 377
#
# _framework density 24.106117999999999
#
# number of rings (size 3 to 8) (size 9 to 14) (size 15 to 20)
#    0.000    2.286    1.429    0.429    6.000    1.714 
#    0.000    7.857    0.000    6.000    0.000    0.000 
#    0.000    0.000    0.000    0.000    0.000    0.000 
#
# Total GULP energy -77963.306609 kJ/mol
# GULP energy per Si atom -5568.807615 kJ/mol
# Density = 2.405125 g / cm^3
# Si number density = 24.106118 Si / 1000 Ang^3
#
#
#
# Elastic Constant Matrix: (Units=GPa)
#
#
# Indices 1 2 3 4 5 6 
#
# 1 52.6070 26.8868 32.0480 -1.7578 17.4639 23.8738
# 2 26.8868 115.0518 29.6482 -29.1122 -7.0133 7.6368
# 3 32.0480 29.6482 129.8669 -21.9378 26.7536 8.8437
# 4 -1.7578 -29.1122 -21.9378 43.3476 8.7299 -6.6536
# 5 17.4639 -7.0133 26.7536 8.7299 29.4894 -4.8165
# 6 23.8738 7.6368 8.8437 -6.6536 -4.8165 42.5056
#
#
#
# Elastic Compliance Matrix: (Units=1/GPa)
#
#
# Indices 1 2 3 4 5 6 
#
# 1 0.054112 -0.013809 -0.000838 -0.004789 -0.038517 -0.032851
# 2 -0.013809 0.014361 -0.001847 0.006858 0.012555 0.008056
# 3 -0.000838 -0.001847 0.012663 0.007621 -0.014052 -0.002231
# 4 -0.004789 0.006858 0.007621 0.034348 -0.011980 0.003891
# 5 -0.038517 0.012555 -0.014052 -0.011980 0.080833 0.029586
# 6 -0.032851 0.008056 -0.002231 0.003891 0.029586 0.044956
#
#
# Mechanical properties :
#
#
# Convention : Reuss Voigt Hill
#
# Bulk Modulus (GPa) = 20.76968 52.74351 36.75660
# Shear Modulus (GPa) = 17.22297 36.99803 27.11050
#
# Velocity S-wave (km/s) = 2.67585 3.92190 3.35719
# Velocity P-wave (km/s) = 4.26398 6.51426 5.50532
#
# Compressibility (1/GPa) = 0.04814710
#
# Stress axis : x y z
#
# Youngs Moduli (GPa) = 18.48025 69.63474 78.97081
#
# Poissons Ratio (x) = 0.96157 0.06618
# Poissons Ratio (y) = 0.25519 0.14588
# Poissons Ratio (z) = 0.01549 0.12864
#
# Static dielectric constant tensor:
#      x y z
#    x 2.020250 0.023660 0.046650 
#    y 0.023660 2.083490 0.045100 
#    z 0.046650 0.045100 1.953150 
# 
# From -- ./inp_files/344509.got.cif
#   From: 2010.05.17/outbox.cif.g08.bks.cpg/sg2_173_cif.got.tgz:344509.got - 2010.06.03 11:33:40.
