data_PCOD9003050
_publ_section_title
;
Structure prediction by ZEFSAII (Michael W. Deem and Ramdas Pophale) SiO2 
 PCOD9003050
Probable space group: P -1
;
_chemical_formula_sum "Si O2"
_cell_formula_units_Z 15
_cell_length_a 17.032769
_cell_length_b 5.805025
_cell_length_c 20.969569
_cell_angle_alpha 98.061537
_cell_angle_beta 17.702245
_cell_angle_gamma 93.251047
_cell_volume 603.524949
_symmetry_space_group_name_H-M "P -1"
_symmetry_group_IT_number 2
_symmetry_cell_setting 'triclinic'
loop_
_space_group_symop_operation_xyz
x,y,z
-x,-y,-z
loop_
_atom_site_type_symbol
_atom_site_label
_atom_site_fract_x
_atom_site_fract_y
_atom_site_fract_z
Si Si1 0.656368 0.727682 0.096692
Si Si2 0.500000 0.000000 0.500000
Si Si3 0.055320 0.157206 0.906331
Si Si4 0.119751 0.974256 0.168520
Si Si5 0.283103 0.241363 0.156097
Si Si6 0.212832 0.352092 0.631449
Si Si7 0.572171 0.505096 0.840105
Si Si8 0.573234 0.632321 0.297395
O O1 0.925109 0.509048 0.883116
O O2 0.750589 0.922375 0.988247
O O3 0.421529 0.652075 0.234878
O O4 0.576443 0.769949 0.233956
O O5 0.828629 0.000776 0.249402
O O6 0.574780 0.755138 0.482686
O O7 0.348265 0.212340 0.698159
O O8 0.825225 0.395799 0.088739
O O9 0.000000 0.000000 0.000000
O O10 0.863880 0.871716 0.352175
O O11 0.071100 0.159628 0.272670
O O12 0.356520 0.748702 0.998146
O O13 0.208379 0.408956 0.283146
O O14 0.432676 0.370488 0.994593
O O15 0.500000 0.000000 0.000000
O O16 0.331730 0.522621 0.499405
#
# Coordination Sequence:
#
# PCOD9003050 Si02
#       8
#     2   1   2   2   2   2   2   2
#     4  10  21  37  57  84 120 156 195 245 294 353
#     4  12  24  42  64  82 118 154 198 254 304 354
#     4  11  25  41  60  85 110 153 200 250 301 357
#     4   9  19  33  54  84 117 157 194 239 294 343
#     4   8  13  27  53  86 121 149 192 239 281 346
#     4  11  24  37  59  87 114 155 200 248 300 353
#     4   8  15  29  53  87 116 153 196 234 286 344
#     4  11  25  40  59  85 117 152 200 248 303 355
#
# _framework density 24.853985999999999
#
# number of rings (size 3 to 8) (size 9 to 14) (size 15 to 20)
#    0.000    2.133    2.667    0.000    3.733    0.533 
#    0.000    0.000    0.000    0.800    0.000   84.000 
#    0.000    0.000    0.000    0.000    0.000    0.133 
#
# Total GULP energy -83554.153643 kJ/mol
# GULP energy per Si atom -5570.276910 kJ/mol
# Density = 2.479742 g / cm^3
# Si number density = 24.853986 Si / 1000 Ang^3
#
#
#
# Elastic Constant Matrix: (Units=GPa)
#
#
# Indices 1 2 3 4 5 6 
#
# 1 174.8723 56.0515 42.3830 -35.8485 4.4242 12.8985
# 2 56.0515 117.5990 30.8107 -15.5240 7.4693 -22.7505
# 3 42.3830 30.8107 101.3499 -14.4785 21.0357 5.5648
# 4 -35.8485 -15.5240 -14.4785 25.7208 6.8151 -14.7773
# 5 4.4242 7.4693 21.0357 6.8151 34.6157 -12.9543
# 6 12.8985 -22.7505 5.5648 -14.7773 -12.9543 53.2747
#
#
#
# Elastic Compliance Matrix: (Units=1/GPa)
#
#
# Indices 1 2 3 4 5 6 
#
# 1 0.009136 -0.002724 -0.000894 0.010722 -0.002489 -0.000913
# 2 -0.002724 0.013085 -0.002397 0.007599 0.000777 0.008794
# 3 -0.000894 -0.002397 0.014189 0.006279 -0.010376 -0.003071
# 4 0.010722 0.007599 0.006279 0.075959 -0.015289 0.017345
# 5 -0.002489 0.000777 -0.010376 -0.015289 0.041279 0.007815
# 6 -0.000913 0.008794 -0.003071 0.017345 0.007815 0.029779
#
#
# Mechanical properties :
#
#
# Convention : Reuss Voigt Hill
#
# Bulk Modulus (GPa) = 41.01824 72.47906 56.74865
# Shear Modulus (GPa) = 24.55979 40.36063 32.46021
#
# Velocity S-wave (km/s) = 3.14692 4.03415 3.61783
# Velocity P-wave (km/s) = 5.45377 7.13613 6.35091
#
# Compressibility (1/GPa) = 0.02437940
#
# Stress axis : x y z
#
# Youngs Moduli (GPa) = 109.45180 76.42469 70.47821
#
# Poissons Ratio (x) = 0.20815 0.06303
# Poissons Ratio (y) = 0.29810 0.16896
# Poissons Ratio (z) = 0.09788 0.18322
#
# Static dielectric constant tensor:
#      x y z
#    x 2.255660 0.151490 0.134070 
#    y 0.151490 2.092820 0.071200 
#    z 0.134070 0.071200 2.116990 
# 
# From -- ./inp_files/117518.got.cif
#   From: 2010.05.17/outbox.cif.g08.bks.cpg/sg2_59_cif.got.tgz:117518.got - 2010.06.03 11:33:40.
