data_PCOD9003175
_publ_section_title
;
Structure prediction by ZEFSAII (Michael W. Deem and Ramdas Pophale) SiO2 
 PCOD9003175
Probable space group: P -1
;
_chemical_formula_sum "Si O2"
_cell_formula_units_Z 14
_cell_length_a 8.395737
_cell_length_b 19.458836
_cell_length_c 15.613429
_cell_angle_alpha 161.630614
_cell_angle_beta 127.689893
_cell_angle_gamma 51.466000
_cell_volume 626.705379
_symmetry_space_group_name_H-M "P -1"
_symmetry_group_IT_number 2
_symmetry_cell_setting 'triclinic'
loop_
_space_group_symop_operation_xyz
x,y,z
-x,-y,-z
loop_
_atom_site_type_symbol
_atom_site_label
_atom_site_fract_x
_atom_site_fract_y
_atom_site_fract_z
Si Si1 0.680627 0.714055 0.612544
Si Si2 0.943816 0.273727 0.153383
Si Si3 0.948583 0.487193 0.067038
Si Si4 0.278133 0.028750 0.383071
Si Si5 0.315966 0.550099 0.381657
Si Si6 0.381329 0.752717 0.262498
Si Si7 0.298757 0.793871 0.838265
O O1 0.801795 0.504460 0.352076
O O2 0.454780 0.678200 0.518229
O O3 0.818938 0.712334 0.743065
O O4 0.682475 0.951212 0.855249
O O5 0.864822 0.238636 0.181964
O O6 0.887489 0.074822 0.846042
O O7 0.816491 0.729274 0.328563
O O8 0.139211 0.471959 0.176190
O O9 0.826021 0.285408 0.805530
O O10 0.000000 0.500000 0.000000
O O11 0.475349 0.079952 0.455043
O O12 0.341072 0.856679 0.277543
O O13 0.241607 0.704196 0.621042
O O14 0.482932 0.347575 0.231575
O O15 0.500000 0.500000 0.000000
#
# Coordination Sequence:
#
# PCOD9003175 Si02
#       7
#     2   2   2   2   2   2   2
#     4  10  21  37  58  87 125 161 199 245 300 366
#     4  10  22  37  61  94 120 157 208 248 302 373
#     4  11  25  43  64  92 124 164 211 256 310 370
#     4  10  22  42  65  89 123 163 206 261 311 361
#     4  10  23  39  59  92 128 162 202 246 305 373
#     4   9  22  42  64  88 118 160 212 259 306 361
#     4  10  21  38  61  90 126 162 199 249 307 363
#
# _framework density 22.339046
#
# number of rings (size 3 to 8) (size 9 to 14) (size 15 to 20)
#    0.000    2.000    0.000    1.714    0.000   16.571 
#    0.000    0.000    0.000    0.000    0.000    0.000 
#    0.000    0.000    0.000    0.000    0.000    0.000 
#
# Total GULP energy -78190.810115 kJ/mol
# GULP energy per Si atom -5585.057865 kJ/mol
# Density = 2.228820 g / cm^3
# Si number density = 22.339046 Si / 1000 Ang^3
#
#
#
# Elastic Constant Matrix: (Units=GPa)
#
#
# Indices 1 2 3 4 5 6 
#
# 1 73.5893 16.9660 26.2059 -2.9469 23.3328 1.4048
# 2 16.9660 75.5574 20.2747 2.2910 7.8066 -4.8616
# 3 26.2059 20.2747 103.0020 11.6724 20.6869 10.5008
# 4 -2.9469 2.2910 11.6724 41.4311 1.6065 9.5204
# 5 23.3328 7.8066 20.6869 1.6065 35.0361 0.4107
# 6 1.4048 -4.8616 10.5008 9.5204 0.4107 20.0359
#
#
#
# Elastic Compliance Matrix: (Units=1/GPa)
#
#
# Indices 1 2 3 4 5 6 
#
# 1 0.018483 -0.002692 -0.002189 0.002945 -0.010528 -0.001985
# 2 -0.002692 0.014998 -0.002706 -0.001645 0.000054 0.006027
# 3 -0.002189 -0.002706 0.012706 -0.001976 -0.005279 -0.006115
# 4 0.002945 -0.001645 -0.001976 0.028006 -0.001561 -0.012846
# 5 -0.010528 0.000054 -0.005279 -0.001561 0.038689 0.003467
# 6 -0.001985 0.006027 -0.006115 -0.012846 0.003467 0.060750
#
#
# Mechanical properties :
#
#
# Convention : Reuss Voigt Hill
#
# Bulk Modulus (GPa) = 32.24567 42.11577 37.18072
# Shear Modulus (GPa) = 25.10749 31.88076 28.49412
#
# Velocity S-wave (km/s) = 3.35614 3.78184 3.57533
# Velocity P-wave (km/s) = 5.42994 6.16146 5.80723
#
# Compressibility (1/GPa) = 0.03101192
#
# Stress axis : x y z
#
# Youngs Moduli (GPa) = 54.10277 66.67696 78.70470
#
# Poissons Ratio (x) = 0.17950 0.17232
# Poissons Ratio (y) = 0.14565 0.21297
# Poissons Ratio (z) = 0.11846 0.18042
#
# Static dielectric constant tensor:
#      x y z
#    x 1.894650 -0.049490 0.008140 
#    y -0.049490 1.857060 0.000980 
#    z 0.008140 0.000980 1.810310 
# 
# From -- ./inp_files/507382.got.cif
#   From: 2010.05.17/outbox.cif.g08.bks.cpg/sg2_254_cif.got.tgz:507382.got - 2010.06.03 11:33:40.
