data_PCOD9003811
_publ_section_title
;
Structure prediction by ZEFSAII (Michael W. Deem and Ramdas Pophale) SiO2 
 PCOD9003811
Probable space group: P -1
;
_chemical_formula_sum "Si O2"
_cell_formula_units_Z 14
_cell_length_a 12.735113
_cell_length_b 11.523770
_cell_length_c 11.856031
_cell_angle_alpha 82.684041
_cell_angle_beta 122.424044
_cell_angle_gamma 146.173170
_cell_volume 601.811239
_symmetry_space_group_name_H-M "P -1"
_symmetry_group_IT_number 2
_symmetry_cell_setting 'triclinic'
loop_
_space_group_symop_operation_xyz
x,y,z
-x,-y,-z
loop_
_atom_site_type_symbol
_atom_site_label
_atom_site_fract_x
_atom_site_fract_y
_atom_site_fract_z
Si Si1 0.370747 0.829612 0.057446
Si Si2 0.503820 0.438535 0.735882
Si Si3 0.414723 0.975555 0.600852
Si Si4 0.995128 0.887707 0.669033
Si Si5 0.061193 0.724212 0.228891
Si Si6 0.851740 0.555002 0.768990
Si Si7 0.183153 0.224478 0.918411
O O1 0.587870 0.009008 0.268196
O O2 0.211770 0.575210 0.954244
O O3 0.100856 0.686966 0.953214
O O4 0.500000 0.000000 0.000000
O O5 0.301164 0.336811 0.544774
O O6 0.705976 0.519873 0.776037
O O7 0.705284 0.693751 0.899366
O O8 0.271673 0.166694 0.715624
O O9 0.630850 0.052060 0.683827
O O10 0.592710 0.242538 0.623711
O O11 0.109244 0.714580 0.385216
O O12 0.991138 0.750777 0.724203
O O13 0.004054 0.973437 0.777452
O O14 0.987172 0.797344 0.182408
O O15 0.500000 0.500000 0.000000
#
# Coordination Sequence:
#
# PCOD9003811 Si02
#       7
#     2   2   2   2   2   2   2
#     4  11  25  41  66  96 126 168 216 267 323 381
#     4  10  21  40  62  87 134 168 204 262 310 371
#     4  10  22  42  67  92 124 170 209 268 327 368
#     4  10  23  39  62  97 125 169 212 252 314 378
#     4  10  21  41  67  90 127 169 211 262 321 382
#     4  11  22  40  68  94 126 168 213 260 317 379
#     4  10  21  37  62  91 125 167 206 251 312 375
#
# _framework density 23.263107000000002
#
# number of rings (size 3 to 8) (size 9 to 14) (size 15 to 20)
#    0.000    1.714    0.000    4.714    6.000    1.143 
#    0.000    5.714    0.000    0.000    0.000    0.000 
#    0.000    0.000    0.000    0.000    0.000    0.000 
#
# Total GULP energy -78289.907464 kJ/mol
# GULP energy per Si atom -5592.136247 kJ/mol
# Density = 2.321016 g / cm^3
# Si number density = 23.263107 Si / 1000 Ang^3
#
#
#
# Elastic Constant Matrix: (Units=GPa)
#
#
# Indices 1 2 3 4 5 6 
#
# 1 105.8481 20.5746 42.5239 -2.8579 -7.0268 -12.2788
# 2 20.5746 93.8864 26.0826 -7.8464 -5.7757 -10.5770
# 3 42.5239 26.0826 171.9031 -33.9949 -14.1879 3.9550
# 4 -2.8579 -7.8464 -33.9949 21.7233 4.0723 6.1032
# 5 -7.0268 -5.7757 -14.1879 4.0723 32.4133 -11.1631
# 6 -12.2788 -10.5770 3.9550 6.1032 -11.1631 28.7364
#
#
#
# Elastic Compliance Matrix: (Units=1/GPa)
#
#
# Indices 1 2 3 4 5 6 
#
# 1 0.012757 -0.000860 -0.004775 -0.009852 0.005166 0.009891
# 2 -0.000860 0.012077 -0.001555 -0.000386 0.003278 0.005647
# 3 -0.004775 -0.001555 0.011021 0.018918 -0.001929 -0.008897
# 4 -0.009852 -0.000386 0.018918 0.085864 -0.015455 -0.031195
# 5 0.005166 0.003278 -0.001929 -0.015455 0.041619 0.023130
# 6 0.009891 0.005647 -0.008897 -0.031195 0.023130 0.057939
#
#
# Mechanical properties :
#
#
# Convention : Reuss Voigt Hill
#
# Bulk Modulus (GPa) = 46.56601 61.11108 53.83854
# Shear Modulus (GPa) = 20.59170 35.40506 27.99838
#
# Velocity S-wave (km/s) = 2.97840 3.90544 3.47299
# Velocity P-wave (km/s) = 5.64698 6.83104 6.26704
#
# Compressibility (1/GPa) = 0.02147489
#
# Stress axis : x y z
#
# Youngs Moduli (GPa) = 78.38660 82.79920 90.73666
#
# Poissons Ratio (x) = 0.07125 0.43323
# Poissons Ratio (y) = 0.06745 0.14112
# Poissons Ratio (z) = 0.37426 0.12878
#
# Static dielectric constant tensor:
#      x y z
#    x 1.861040 0.032920 -0.018100 
#    y 0.032920 1.926700 0.011080 
#    z -0.018100 0.011080 1.910880 
# 
# From -- ./inp_files/426226.got.cif
#   From: 2010.05.17/outbox.cif.g08.bks.cpg/sg2_214_cif.got.tgz:426226.got - 2010.06.03 11:33:40.
