data_PCOD9003760
_publ_section_title
;
Structure prediction by ZEFSAII (Michael W. Deem and Ramdas Pophale) SiO2 
 PCOD9003760
Probable space group: P -1
;
_chemical_formula_sum "Si O2"
_cell_formula_units_Z 16
_cell_length_a 18.382147
_cell_length_b 7.063521
_cell_length_c 9.699105
_cell_angle_alpha 44.567704
_cell_angle_beta 81.075225
_cell_angle_gamma 78.378726
_cell_volume 865.515965
_symmetry_space_group_name_H-M "P -1"
_symmetry_group_IT_number 2
_symmetry_cell_setting 'triclinic'
loop_
_space_group_symop_operation_xyz
x,y,z
-x,-y,-z
loop_
_atom_site_type_symbol
_atom_site_label
_atom_site_fract_x
_atom_site_fract_y
_atom_site_fract_z
Si Si1 0.463997 0.742827 0.978173
Si Si2 0.282459 0.949925 0.231550
Si Si3 0.451484 0.732649 0.306811
Si Si4 0.959973 0.335734 0.984041
Si Si5 0.952753 0.712368 0.304034
Si Si6 0.205734 0.449235 0.172464
Si Si7 0.295697 0.960395 0.897339
Si Si8 0.207169 0.421848 0.513021
O O1 0.512630 0.989734 0.831053
O O2 0.500000 0.500000 0.000000
O O3 0.458287 0.653258 0.185057
O O4 0.380687 0.848102 0.901684
O O5 0.363968 0.803948 0.328322
O O6 0.289073 0.030147 0.026528
O O7 0.225709 0.726689 0.371142
O O8 0.252380 0.208235 0.198152
O O9 0.500000 0.500000 0.500000
O O10 0.877970 0.483904 0.894319
O O11 0.009997 0.314975 0.842612
O O12 0.000000 0.500000 0.000000
O O13 0.953052 0.024347 0.189964
O O14 0.869942 0.636103 0.368463
O O15 0.000000 0.500000 0.500000
O O16 0.244984 0.722275 0.009336
O O17 0.204287 0.376209 0.373021
O O18 0.269452 0.214445 0.676830
#
# Coordination Sequence:
#
# PCOD9003760 Si02
#       8
#     2   2   2   2   2   2   2   2
#     4  10  21  37  62  88 116 157 200 241 289 352
#     4  10  24  38  61  89 122 157 194 246 293 347
#     4  10  21  39  59  89 123 154 198 244 292 345
#     4  11  26  40  64  89 116 157 196 243 297 349
#     4  11  24  44  62  86 122 153 195 246 291 348
#     4  11  23  40  58  90 121 150 203 242 289 356
#     4  10  22  41  59  85 122 158 194 241 301 343
#     4  11  23  40  61  86 119 159 194 242 295 349
#
# _framework density 18.486082
#
# number of rings (size 3 to 8) (size 9 to 14) (size 15 to 20)
#    0.000    1.500    2.500    1.500    3.500    4.000 
#    0.000    0.000    0.000    0.000    0.000    0.000 
#    0.000    0.000    0.000    0.000    0.000    0.000 
#
# Total GULP energy -89403.482717 kJ/mol
# GULP energy per Si atom -5587.717670 kJ/mol
# Density = 1.844401 g / cm^3
# Si number density = 18.486082 Si / 1000 Ang^3
#
#
#
# Elastic Constant Matrix: (Units=GPa)
#
#
# Indices 1 2 3 4 5 6 
#
# 1 93.4950 24.7014 12.5871 6.5151 7.4189 -0.1756
# 2 24.7014 96.1127 14.4364 0.4252 8.2819 -13.4985
# 3 12.5871 14.4364 73.6468 -7.0179 20.8912 -4.4493
# 4 6.5151 0.4252 -7.0179 8.3904 -2.4943 2.5398
# 5 7.4189 8.2819 20.8912 -2.4943 42.9895 0.1294
# 6 -0.1756 -13.4985 -4.4493 2.5398 0.1294 25.9215
#
#
#
# Elastic Compliance Matrix: (Units=1/GPa)
#
#
# Indices 1 2 3 4 5 6 
#
# 1 0.012696 -0.002831 -0.002467 -0.011923 -0.001136 -0.000638
# 2 -0.002831 0.012356 -0.001345 -0.001889 -0.001367 0.006376
# 3 -0.002467 -0.001345 0.017703 0.014398 -0.007085 0.000946
# 4 -0.011923 -0.001889 0.014398 0.145644 0.003914 -0.012883
# 5 -0.001136 -0.001367 -0.007085 0.003914 0.027399 -0.002456
# 6 -0.000638 0.006376 0.000946 -0.012883 -0.002456 0.043331
#
#
# Mechanical properties :
#
#
# Convention : Reuss Voigt Hill
#
# Bulk Modulus (GPa) = 33.93631 40.74494 37.34063
# Shear Modulus (GPa) = 17.71558 29.56225 23.63891
#
# Velocity S-wave (km/s) = 3.09903 4.00329 3.57983
# Velocity P-wave (km/s) = 5.58596 6.59221 6.10983
#
# Compressibility (1/GPa) = 0.02946696
#
# Stress axis : x y z
#
# Youngs Moduli (GPa) = 78.76653 80.93397 56.48841
#
# Poissons Ratio (x) = 0.22914 0.13937
# Poissons Ratio (y) = 0.22300 0.07599
# Poissons Ratio (z) = 0.19433 0.10887
#
# Static dielectric constant tensor:
#      x y z
#    x 1.635310 0.005150 0.003260 
#    y 0.005150 1.596880 0.003800 
#    z 0.003260 0.003800 1.624510 
# 
# From -- ./inp_files/10726.got.cif
#   From: 2010.05.17/outbox.cif.g08.bks.cpg/sg2_6_cif.got.tgz:10726.got - 2010.06.03 11:33:40.
