data_PCOD9003540
_publ_section_title
;
Structure prediction by ZEFSAII (Michael W. Deem and Ramdas Pophale) SiO2 
 PCOD9003540
Probable space group: P -1
;
_chemical_formula_sum "Si O2"
_cell_formula_units_Z 12
_cell_length_a 5.214079
_cell_length_b 18.037974
_cell_length_c 12.167479
_cell_angle_alpha 151.981958
_cell_angle_beta 66.914725
_cell_angle_gamma 104.924267
_cell_volume 484.012894
_symmetry_space_group_name_H-M "P -1"
_symmetry_group_IT_number 2
_symmetry_cell_setting 'triclinic'
loop_
_space_group_symop_operation_xyz
x,y,z
-x,-y,-z
loop_
_atom_site_type_symbol
_atom_site_label
_atom_site_fract_x
_atom_site_fract_y
_atom_site_fract_z
Si Si1 0.274757 0.154037 0.193525
Si Si2 0.779904 0.041117 0.253334
Si Si3 0.681587 0.516351 0.286730
Si Si4 0.766849 0.682337 0.262639
Si Si5 0.721038 0.657854 0.994931
Si Si6 0.185068 0.906697 0.443913
O O1 0.366801 0.321393 0.420302
O O2 0.985807 0.144084 0.294346
O O3 0.500000 0.000000 0.000000
O O4 0.226278 0.113175 0.021934
O O5 0.472778 0.157541 0.464128
O O6 0.871723 0.003247 0.312714
O O7 0.776320 0.577211 0.231806
O O8 0.409049 0.444326 0.206826
O O9 0.936760 0.384245 0.124655
O O10 0.052791 0.748273 0.280435
O O11 0.681741 0.611752 0.069474
O O12 0.514119 0.835121 0.262292
O O13 0.000000 0.000000 0.500000
#
# Coordination Sequence:
#
# PCOD9003540 Si02
#       6
#     2   2   2   2   2   2
#     4  11  21  36  60  92 133 163 206 255 319 386
#     4  10  21  37  60  94 124 168 212 253 316 367
#     4  12  22  37  62  94 136 158 199 263 325 389
#     4  11  21  39  60  97 128 165 204 261 323 378
#     4  11  25  37  61  95 128 167 203 257 332 372
#     4  11  24  43  65  89 127 172 219 260 303 375
#
# _framework density 24.792725999999998
#
# number of rings (size 3 to 8) (size 9 to 14) (size 15 to 20)
#    0.000    1.000    5.000    2.000    4.667    2.667 
#    0.000    0.000    0.000    2.000    0.000    0.000 
#    0.000    0.000    0.000    0.000    0.000    0.000 
#
# Total GULP energy -67159.701135 kJ/mol
# GULP energy per Si atom -5596.641761 kJ/mol
# Density = 2.473630 g / cm^3
# Si number density = 24.792726 Si / 1000 Ang^3
#
#
#
# Elastic Constant Matrix: (Units=GPa)
#
#
# Indices 1 2 3 4 5 6 
#
# 1 129.6665 23.4168 44.2252 -19.2887 11.3306 -31.5719
# 2 23.4168 45.0816 21.4455 -7.5447 6.7061 -28.5566
# 3 44.2252 21.4455 141.5455 -22.4408 30.7800 -30.1949
# 4 -19.2887 -7.5447 -22.4408 25.6533 -17.4361 0.4650
# 5 11.3306 6.7061 30.7800 -17.4361 57.5362 -3.1751
# 6 -31.5719 -28.5566 -30.1949 0.4650 -3.1751 46.6319
#
#
#
# Elastic Compliance Matrix: (Units=1/GPa)
#
#
# Indices 1 2 3 4 5 6 
#
# 1 0.010732 0.000430 -0.000911 0.008053 0.001147 0.006937
# 2 0.000430 0.039340 0.001262 0.012406 -0.000203 0.025062
# 3 -0.000911 0.001262 0.010246 0.006387 -0.003154 0.006512
# 4 0.008053 0.012406 0.006387 0.063257 0.013686 0.017486
# 5 0.001147 -0.000203 -0.003154 0.013686 0.023015 0.000041
# 6 0.006937 0.025062 0.006512 0.017486 0.000041 0.045535
#
#
# Mechanical properties :
#
#
# Convention : Reuss Voigt Hill
#
# Bulk Modulus (GPa) = 16.15999 54.94096 35.55048
# Shear Modulus (GPa) = 23.67552 41.11136 32.39344
#
# Velocity S-wave (km/s) = 3.09356 4.07652 3.61857
# Velocity P-wave (km/s) = 4.39230 6.66075 5.64172
#
# Compressibility (1/GPa) = 0.06188123
#
# Stress axis : x y z
#
# Youngs Moduli (GPa) = 93.17956 25.41953 97.59918
#
# Poissons Ratio (x) = -0.01094 0.08893
# Poissons Ratio (y) = -0.04011 -0.12322
# Poissons Ratio (z) = 0.08490 -0.03209
#
# Static dielectric constant tensor:
#      x y z
#    x 2.027200 0.027940 -0.006350 
#    y 0.027940 1.943070 0.029260 
#    z -0.006350 0.029260 2.042580 
# 
# From -- ./inp_files/67949.got.cif
#   From: 2010.05.17/outbox.cif.g08.bks.cpg/sg2_34_cif.got.tgz:67949.got - 2010.06.03 11:33:40.
