data_PCOD9003810
_publ_section_title
;
Structure prediction by ZEFSAII (Michael W. Deem and Ramdas Pophale) SiO2 
 PCOD9003810
Probable space group: P -1
;
_chemical_formula_sum "Si O2"
_cell_formula_units_Z 10
_cell_length_a 13.825812
_cell_length_b 7.673727
_cell_length_c 11.495168
_cell_angle_alpha 68.684822
_cell_angle_beta 29.798761
_cell_angle_gamma 48.582344
_cell_volume 374.994474
_symmetry_space_group_name_H-M "P -1"
_symmetry_group_IT_number 2
_symmetry_cell_setting 'triclinic'
loop_
_space_group_symop_operation_xyz
x,y,z
-x,-y,-z
loop_
_atom_site_type_symbol
_atom_site_label
_atom_site_fract_x
_atom_site_fract_y
_atom_site_fract_z
Si Si1 0.655077 0.295052 0.998592
Si Si2 0.529590 0.280615 0.381654
Si Si3 0.181569 0.452868 0.152315
Si Si4 0.911585 0.356006 0.051777
Si Si5 0.184276 0.053744 0.273686
O O1 0.895785 0.282512 0.784490
O O2 0.743326 0.030958 0.918445
O O3 0.500000 0.500000 0.000000
O O4 0.475436 0.396539 0.279912
O O5 0.726942 0.297509 0.233745
O O6 0.246938 0.451693 0.714771
O O7 0.753760 0.948897 0.212689
O O8 0.045774 0.357532 0.365224
O O9 0.136976 0.494488 0.051718
O O10 0.522452 0.177219 0.898665
O O11 0.000000 0.000000 0.500000
#
# Coordination Sequence:
#
# PCOD9003810 Si02
#       5
#     2   2   2   2   2
#     4   9  19  36  58  90 127 165 211 268 324 386
#     4   9  18  33  58  91 127 167 217 267 323 393
#     4   9  20  39  59  89 129 167 217 273 328 392
#     4   9  18  35  60  90 125 172 216 264 329 393
#     4  10  21  37  62  91 124 168 219 273 331 393
#
# _framework density 26.667059999999999
#
# number of rings (size 3 to 8) (size 9 to 14) (size 15 to 20)
#    0.000    2.800    0.000    0.000    0.000   10.400 
#    0.000    8.000    0.000    0.000    0.000   11.200 
#    0.000    0.000    0.000    0.000    0.000    0.000 
#
# Total GULP energy -55870.952568 kJ/mol
# GULP energy per Si atom -5587.095257 kJ/mol
# Density = 2.660636 g / cm^3
# Si number density = 26.667060 Si / 1000 Ang^3
#
#
#
# Elastic Constant Matrix: (Units=GPa)
#
#
# Indices 1 2 3 4 5 6 
#
# 1 159.8382 66.4183 47.0014 -0.2943 18.4280 -1.6980
# 2 66.4183 148.1693 41.8842 -10.0495 10.3618 1.4968
# 3 47.0014 41.8842 107.2809 0.6177 16.4919 -31.8671
# 4 -0.2943 -10.0495 0.6177 30.8525 2.7059 5.8480
# 5 18.4280 10.3618 16.4919 2.7059 57.2658 -13.1742
# 6 -1.6980 1.4968 -31.8671 5.8480 -13.1742 30.3371
#
#
#
# Elastic Compliance Matrix: (Units=1/GPa)
#
#
# Indices 1 2 3 4 5 6 
#
# 1 0.008643 -0.002601 -0.003713 0.000328 -0.002253 -0.004329
# 2 -0.002601 0.009659 -0.004467 0.004627 -0.001412 -0.006819
# 3 -0.003713 -0.004467 0.018953 -0.006192 0.001883 0.021933
# 4 0.000328 0.004627 -0.006192 0.037470 -0.004595 -0.015933
# 5 -0.002253 -0.001412 0.001883 -0.004595 0.020846 0.011860
# 6 -0.004329 -0.006819 0.021933 -0.015933 0.011860 0.064318
#
#
# Mechanical properties :
#
#
# Convention : Reuss Voigt Hill
#
# Bulk Modulus (GPa) = 63.71834 80.65515 72.18674
# Shear Modulus (GPa) = 26.78353 41.02336 33.90344
#
# Velocity S-wave (km/s) = 3.17261 3.92644 3.56948
# Velocity P-wave (km/s) = 6.11282 7.13210 6.64204
#
# Compressibility (1/GPa) = 0.01569407
#
# Stress axis : x y z
#
# Youngs Moduli (GPa) = 115.69452 103.52803 52.76234
#
# Poissons Ratio (x) = 0.26933 0.19589
# Poissons Ratio (y) = 0.30098 0.23567
# Poissons Ratio (z) = 0.42954 0.46241
#
# Static dielectric constant tensor:
#      x y z
#    x 2.162760 0.114090 0.050620 
#    y 0.114090 2.141360 0.061030 
#    z 0.050620 0.061030 2.251390 
# 
# From -- ./inp_files/445580.got.cif
#   From: 2010.05.17/outbox.cif.g08.bks.cpg/sg2_223_cif.got.tgz:445580.got - 2010.06.03 11:33:40.
