data_PCOD9003914
_publ_section_title
;
Structure prediction by ZEFSAII (Michael W. Deem and Ramdas Pophale) SiO2 
 PCOD9003914
Probable space group: P -1
;
_chemical_formula_sum "Si O2"
_cell_formula_units_Z 14
_cell_length_a 12.513895
_cell_length_b 10.338567
_cell_length_c 5.377005
_cell_angle_alpha 100.546829
_cell_angle_beta 103.886583
_cell_angle_gamma 84.491940
_cell_volume 662.924434
_symmetry_space_group_name_H-M "P -1"
_symmetry_group_IT_number 2
_symmetry_cell_setting 'triclinic'
loop_
_space_group_symop_operation_xyz
x,y,z
-x,-y,-z
loop_
_atom_site_type_symbol
_atom_site_label
_atom_site_fract_x
_atom_site_fract_y
_atom_site_fract_z
Si Si1 0.939372 0.649071 0.040062
Si Si2 0.292552 0.849952 0.386457
Si Si3 0.312537 0.562533 0.402885
Si Si4 0.955761 0.072489 0.750414
Si Si5 0.428791 0.879528 0.981668
Si Si6 0.529109 0.606697 0.851468
Si Si7 0.876313 0.569805 0.476932
O O1 0.859319 0.637278 0.226147
O O2 0.011533 0.773980 0.173378
O O3 0.883088 0.667769 0.747546
O O4 0.000000 0.500000 0.000000
O O5 0.273985 0.693603 0.280220
O O6 0.175679 0.926618 0.331053
O O7 0.344727 0.864824 0.696252
O O8 0.368436 0.892346 0.217219
O O9 0.428115 0.599886 0.599710
O O10 0.353908 0.437816 0.217243
O O11 0.218625 0.526695 0.532631
O O12 0.000000 0.000000 0.500000
O O13 0.000000 0.000000 0.000000
O O14 0.513130 0.751626 0.000657
O O15 0.500000 0.000000 0.000000
O O16 0.500000 0.500000 0.000000
O O17 0.000000 0.500000 0.500000
#
# Coordination Sequence:
#
# PCOD9003914 Si02
#       7
#     2   2   2   2   2   2   2
#     4  10  22  41  65  94 132 169 218 273 331 385
#     4  11  23  44  72  92 130 188 223 263 348 405
#     4  10  22  39  68  99 130 176 221 277 333 406
#     4  12  26  47  69  98 141 181 234 281 327 419
#     4  11  24  44  68  98 135 173 222 279 340 405
#     4  10  21  41  65  99 131 167 227 279 330 395
#     4  10  21  37  62  99 132 167 215 273 332 391
#
# _framework density 21.118547
#
# number of rings (size 3 to 8) (size 9 to 14) (size 15 to 20)
#    0.000    1.429    1.429    3.857    2.000    5.714 
#    7.714    0.000    0.000    0.000    0.000    0.000 
#    0.000    0.000    0.000    0.000    0.000    0.000 
#
# Total GULP energy -78101.637396 kJ/mol
# GULP energy per Si atom -5578.688385 kJ/mol
# Density = 2.107048 g / cm^3
# Si number density = 21.118547 Si / 1000 Ang^3
#
#
#
# Elastic Constant Matrix: (Units=GPa)
#
#
# Indices 1 2 3 4 5 6 
#
# 1 86.8695 29.2141 12.1598 -6.6038 -27.0653 -5.1865
# 2 29.2141 104.4585 11.9160 -1.4847 -11.7580 0.6538
# 3 12.1598 11.9160 110.5048 -14.6552 -20.1390 -7.1964
# 4 -6.6038 -1.4847 -14.6552 32.4164 8.1494 0.3621
# 5 -27.0653 -11.7580 -20.1390 8.1494 40.1351 -6.8736
# 6 -5.1865 0.6538 -7.1964 0.3621 -6.8736 40.1557
#
#
#
# Elastic Compliance Matrix: (Units=1/GPa)
#
#
# Indices 1 2 3 4 5 6 
#
# 1 0.016275 -0.003437 0.000964 0.000778 0.011015 0.004209
# 2 -0.003437 0.010670 -0.000833 -0.000684 0.000411 -0.000691
# 3 0.000964 -0.000833 0.010715 0.003569 0.005569 0.002979
# 4 0.000778 -0.000684 0.003569 0.033804 -0.004813 -0.000377
# 5 0.011015 0.000411 0.005569 -0.004813 0.037763 0.008921
# 6 0.004209 -0.000691 0.002979 -0.000377 0.008921 0.027522
#
#
# Mechanical properties :
#
#
# Convention : Reuss Voigt Hill
#
# Bulk Modulus (GPa) = 32.20733 45.37917 38.79325
# Shear Modulus (GPa) = 32.52857 39.11096 35.81976
#
# Velocity S-wave (km/s) = 3.92890 4.30812 4.12288
# Velocity P-wave (km/s) = 5.98879 6.80302 6.40885
#
# Compressibility (1/GPa) = 0.03104883
#
# Stress axis : x y z
#
# Youngs Moduli (GPa) = 61.44526 93.71809 93.32403
#
# Poissons Ratio (x) = 0.32211 -0.09001
# Poissons Ratio (y) = 0.21119 0.07776
# Poissons Ratio (z) = -0.05926 0.07809
#
# Static dielectric constant tensor:
#      x y z
#    x 1.700680 0.000660 -0.050750 
#    y 0.000660 1.752870 0.055510 
#    z -0.050750 0.055510 1.748980 
# 
# From -- ./inp_files/60961.got.cif
#   From: 2010.05.17/outbox.cif.g08.bks.cpg/sg2_31_cif.got.tgz:60961.got - 2010.06.03 11:33:40.
