data_PCOD9003790
_publ_section_title
;
Structure prediction by ZEFSAII (Michael W. Deem and Ramdas Pophale) SiO2 
 PCOD9003790
Probable space group: P -1
;
_chemical_formula_sum "Si O2"
_cell_formula_units_Z 12
_cell_length_a 9.405131
_cell_length_b 13.876223
_cell_length_c 17.493746
_cell_angle_alpha 157.749696
_cell_angle_beta 43.560855
_cell_angle_gamma 124.800183
_cell_volume 550.289002
_symmetry_space_group_name_H-M "P -1"
_symmetry_group_IT_number 2
_symmetry_cell_setting 'triclinic'
loop_
_space_group_symop_operation_xyz
x,y,z
-x,-y,-z
loop_
_atom_site_type_symbol
_atom_site_label
_atom_site_fract_x
_atom_site_fract_y
_atom_site_fract_z
Si Si1 0.455987 0.880194 0.010535
Si Si2 0.217062 0.278984 0.789936
Si Si3 0.888245 0.468338 0.622943
Si Si4 0.054014 0.840288 0.065153
Si Si5 0.737403 0.529400 0.430063
Si Si6 0.604933 0.339524 0.764226
O O1 0.686817 0.685534 0.814355
O O2 0.277265 0.747426 0.962561
O O3 0.500000 0.000000 0.000000
O O4 0.331788 0.141224 0.305480
O O5 0.413773 0.382899 0.806485
O O6 0.141470 0.210050 0.851504
O O7 0.298011 0.989846 0.501364
O O8 0.000000 0.500000 0.000000
O O9 0.789874 0.423215 0.710779
O O10 0.099298 0.550372 0.618350
O O11 0.976404 0.169301 0.328966
O O12 0.122811 0.663957 0.833299
O O13 0.500000 0.500000 0.500000
O O14 0.500000 0.500000 0.000000
#
# Coordination Sequence:
#
# PCOD9003790 Si02
#       6
#     2   2   2   2   2   2
#     4  11  23  42  59  87 121 158 204 248 296 354
#     4  10  21  37  62  90 121 158 194 244 300 353
#     4  10  24  40  63  87 123 162 195 251 303 346
#     4  10  22  41  60  88 124 155 203 248 293 362
#     4  11  23  41  59  89 117 157 207 246 293 361
#     4  10  21  39  61  92 122 153 200 242 297 365
#
# _framework density 21.806723000000002
#
# number of rings (size 3 to 8) (size 9 to 14) (size 15 to 20)
#    0.000    1.667    1.667    2.000    0.000    6.667 
#    0.000    0.000    0.000    0.000    0.000    0.000 
#    0.000    0.000    0.000    0.000    0.000    0.000 
#
# Total GULP energy -67050.772331 kJ/mol
# GULP energy per Si atom -5587.564361 kJ/mol
# Density = 2.175709 g / cm^3
# Si number density = 21.806723 Si / 1000 Ang^3
#
#
#
# Elastic Constant Matrix: (Units=GPa)
#
#
# Indices 1 2 3 4 5 6 
#
# 1 134.8337 15.6931 77.2817 16.2903 -25.5864 11.7973
# 2 15.6931 58.4936 19.8698 -18.9659 11.7980 9.4162
# 3 77.2817 19.8698 186.7175 -24.6622 6.3951 -29.3442
# 4 16.2903 -18.9659 -24.6622 25.9950 -8.2427 -1.9113
# 5 -25.5864 11.7980 6.3951 -8.2427 53.3715 -4.4313
# 6 11.7973 9.4162 -29.3442 -1.9113 -4.4313 33.8540
#
#
#
# Elastic Compliance Matrix: (Units=1/GPa)
#
#
# Indices 1 2 3 4 5 6 
#
# 1 0.039724 -0.018696 -0.029018 -0.064320 0.013762 -0.035625
# 2 -0.018696 0.033187 0.011809 0.044569 -0.010108 0.008714
# 3 -0.029018 0.011809 0.028812 0.053799 -0.008869 0.033677
# 4 -0.064320 0.044569 0.053799 0.161652 -0.016890 0.063565
# 5 0.013762 -0.010108 -0.008869 -0.016890 0.025417 -0.007299
# 6 -0.035625 0.008714 0.033677 0.063565 -0.007299 0.071354
#
#
# Mechanical properties :
#
#
# Convention : Reuss Voigt Hill
#
# Bulk Modulus (GPa) = 33.43002 67.30378 50.36690
# Shear Modulus (GPa) = 11.31408 40.45746 25.88577
#
# Velocity S-wave (km/s) = 2.28026 4.31196 3.44910
# Velocity P-wave (km/s) = 4.72189 7.46468 6.24571
#
# Compressibility (1/GPa) = 0.02991324
#
# Stress axis : x y z
#
# Youngs Moduli (GPa) = 25.17367 30.13186 34.70812
#
# Poissons Ratio (x) = 0.56336 1.00715
# Poissons Ratio (y) = 0.47066 -0.40988
# Poissons Ratio (z) = 0.73048 -0.35583
#
# Static dielectric constant tensor:
#      x y z
#    x 1.785510 0.012390 -0.007040 
#    y 0.012390 1.860480 0.009950 
#    z -0.007040 0.009950 1.784420 
# 
# From -- ./inp_files/10647.got.cif
#   From: 2010.05.17/outbox.cif.g08.bks.cpg/sg2_6_cif.got.tgz:10647.got - 2010.06.03 11:33:40.
