data_PCOD9003146
_publ_section_title
;
Structure prediction by ZEFSAII (Michael W. Deem and Ramdas Pophale) SiO2 
 PCOD9003146
Probable space group: P -1
;
_chemical_formula_sum "Si O2"
_cell_formula_units_Z 16
_cell_length_a 15.956906
_cell_length_b 5.219665
_cell_length_c 18.762772
_cell_angle_alpha 63.744849
_cell_angle_beta 157.215228
_cell_angle_gamma 114.067922
_cell_volume 542.768169
_symmetry_space_group_name_H-M "P -1"
_symmetry_group_IT_number 2
_symmetry_cell_setting 'triclinic'
loop_
_space_group_symop_operation_xyz
x,y,z
-x,-y,-z
loop_
_atom_site_type_symbol
_atom_site_label
_atom_site_fract_x
_atom_site_fract_y
_atom_site_fract_z
Si Si1 0.824452 0.893275 0.507730
Si Si2 0.491595 0.623741 0.806907
Si Si3 0.542290 0.399805 0.373473
Si Si4 0.845966 0.222633 0.921245
Si Si5 0.015729 0.836974 0.811284
Si Si6 0.298897 0.691998 0.348396
Si Si7 0.637636 0.834498 0.027362
Si Si8 0.217486 0.131686 0.710947
O O1 0.761959 0.566100 0.505939
O O2 0.877266 0.981320 0.620784
O O3 0.618040 0.071559 0.301166
O O4 0.995792 0.965333 0.572129
O O5 0.565122 0.668990 0.778042
O O6 0.650804 0.610054 0.000972
O O7 0.297618 0.398290 0.693908
O O8 0.379857 0.635490 0.248916
O O9 0.613125 0.196044 0.519616
O O10 0.788699 0.110533 0.809740
O O11 0.942962 0.061447 0.086939
O O12 0.000000 0.500000 0.000000
O O13 0.896486 0.533832 0.763491
O O14 0.249900 0.876234 0.951775
O O15 0.500000 0.500000 0.500000
O O16 0.401778 0.902569 0.864843
O O17 0.758941 0.744302 0.204965
#
# Coordination Sequence:
#
# PCOD9003146 Si02
#       8
#     2   2   2   2   2   2   2   2
#     4  10  22  37  56  81 116 152 187 234 278 332
#     4  12  22  35  57  84 116 150 189 232 280 336
#     4  10  21  37  58  86 115 148 186 231 288 337
#     4   9  16  32  62  86 107 146 188 227 279 338
#     4   9  17  34  56  82 112 146 185 231 281 325
#     4   8  16  32  59  86 109 143 185 227 279 340
#     4  10  22  39  59  82 115 150 189 238 279 331
#     4  10  22  40  58  81 111 152 196 232 279 328
#
# _framework density 29.478515000000002
#
# number of rings (size 3 to 8) (size 9 to 14) (size 15 to 20)
#    0.000    2.250    0.000    3.000    0.000    3.000 
#    0.000   13.750    0.000   49.500    0.000    0.000 
#    0.000    0.000    0.000    0.000    0.000    0.000 
#
# Total GULP energy -89395.446302 kJ/mol
# GULP energy per Si atom -5587.215394 kJ/mol
# Density = 2.941142 g / cm^3
# Si number density = 29.478515 Si / 1000 Ang^3
#
#
#
# Elastic Constant Matrix: (Units=GPa)
#
#
# Indices 1 2 3 4 5 6 
#
# 1 207.8084 38.1263 26.7573 17.9053 -49.4034 31.7348
# 2 38.1263 84.2436 -1.4229 10.5467 8.6447 20.6909
# 3 26.7573 -1.4229 72.1049 10.7175 -21.9222 9.3023
# 4 17.9053 10.5467 10.7175 36.8367 8.5182 -8.7874
# 5 -49.4034 8.6447 -21.9222 8.5182 82.6614 14.4755
# 6 31.7348 20.6909 9.3023 -8.7874 14.4755 58.2653
#
#
#
# Elastic Compliance Matrix: (Units=1/GPa)
#
#
# Indices 1 2 3 4 5 6 
#
# 1 0.008583 -0.001957 0.001136 -0.007427 0.007659 -0.007184
# 2 -0.001957 0.014735 0.002185 -0.004946 -0.000732 -0.005080
# 3 0.001136 0.002185 0.018352 -0.010159 0.007726 -0.007776
# 4 -0.007427 -0.004946 -0.010159 0.042504 -0.014028 0.017319
# 5 0.007659 -0.000732 0.007726 -0.014028 0.022496 -0.012850
# 6 -0.007184 -0.005080 -0.007776 0.017319 -0.012850 0.029925
#
#
# Mechanical properties :
#
#
# Convention : Reuss Voigt Hill
#
# Bulk Modulus (GPa) = 22.52399 54.56426 38.54412
# Shear Modulus (GPa) = 33.63236 55.59908 44.61572
#
# Velocity S-wave (km/s) = 3.38140 4.34762 3.89459
# Velocity P-wave (km/s) = 4.78566 6.61456 5.77300
#
# Compressibility (1/GPa) = 0.04439711
#
# Stress axis : x y z
#
# Youngs Moduli (GPa) = 116.51519 67.86702 54.48859
#
# Poissons Ratio (x) = 0.13280 -0.06188
# Poissons Ratio (y) = 0.22800 -0.11905
# Poissons Ratio (z) = -0.13231 -0.14828
#
# Static dielectric constant tensor:
#      x y z
#    x 2.298960 -0.073360 -0.059190 
#    y -0.073360 2.363410 0.101040 
#    z -0.059190 0.101040 2.464400 
# 
# From -- ./inp_files/571650.got.cif
#   From: 2010.05.17/outbox.cif.g08.bks.cpg/sg2_286_cif.got.tgz:571650.got - 2010.06.03 11:33:40.
