data_PCOD9003381
_publ_section_title
;
Structure prediction by ZEFSAII (Michael W. Deem and Ramdas Pophale) SiO2 
 PCOD9003381
Probable space group: P -1
;
_chemical_formula_sum "Si O2"
_cell_formula_units_Z 16
_cell_length_a 12.569160
_cell_length_b 7.977811
_cell_length_c 13.257415
_cell_angle_alpha 113.713288
_cell_angle_beta 44.891722
_cell_angle_gamma 81.567530
_cell_volume 639.365659
_symmetry_space_group_name_H-M "P -1"
_symmetry_group_IT_number 2
_symmetry_cell_setting 'triclinic'
loop_
_space_group_symop_operation_xyz
x,y,z
-x,-y,-z
loop_
_atom_site_type_symbol
_atom_site_label
_atom_site_fract_x
_atom_site_fract_y
_atom_site_fract_z
Si Si1 0.849437 0.184844 0.737245
Si Si2 0.816096 0.754527 0.929676
Si Si3 0.411742 0.471254 0.163118
Si Si4 0.719130 0.392502 0.350808
Si Si5 0.611552 0.064023 0.707308
Si Si6 0.897645 0.774004 0.282837
Si Si7 0.184739 0.441567 0.485773
Si Si8 0.076148 0.144918 0.927021
O O1 0.727530 0.442484 0.821307
O O2 0.985881 0.141179 0.728185
O O3 0.650694 0.234821 0.925470
O O4 0.000000 0.000000 0.500000
O O5 0.955804 0.498435 0.836061
O O6 0.945304 0.678625 0.722102
O O7 0.590380 0.867902 0.102529
O O8 0.815274 0.916943 0.052960
O O9 0.399863 0.704923 0.237580
O O10 0.301574 0.446860 0.318084
O O11 0.500000 0.500000 0.500000
O O12 0.721567 0.539410 0.472393
O O13 0.855241 0.107900 0.221627
O O14 0.838892 0.357647 0.162368
O O15 0.780186 0.807117 0.594471
O O16 0.677356 0.955791 0.524367
O O17 0.874001 0.771204 0.180155
#
# Coordination Sequence:
#
# PCOD9003381 Si02
#       8
#     2   2   2   2   2   2   2   2
#     4  11  24  43  69 100 129 169 228 284 327 399
#     4  10  22  42  63  98 143 169 217 277 325 403
#     4  11  24  45  72  97 129 178 225 273 343 393
#     4  10  21  37  59  93 138 172 224 270 320 401
#     4  11  22  42  68  97 135 177 222 271 329 399
#     4  11  22  39  66  95 133 174 223 279 331 387
#     4  10  24  42  66 102 131 175 222 273 334 397
#     4  10  22  37  60  98 132 178 221 266 331 393
#
# _framework density 25.024799999999999
#
# number of rings (size 3 to 8) (size 9 to 14) (size 15 to 20)
#    0.000    1.500    2.500    1.875    1.750    2.500 
#    0.000    5.000    0.000    0.000    0.000    0.000 
#    0.000    0.000    0.000    0.000    0.000    0.000 
#
# Total GULP energy -89161.911631 kJ/mol
# GULP energy per Si atom -5572.619477 kJ/mol
# Density = 2.496784 g / cm^3
# Si number density = 25.024800 Si / 1000 Ang^3
#
#
#
# Elastic Constant Matrix: (Units=GPa)
#
#
# Indices 1 2 3 4 5 6 
#
# 1 61.1360 12.3537 38.8105 1.7534 -8.8219 13.8438
# 2 12.3537 94.9933 44.9667 -16.7101 20.4261 9.3270
# 3 38.8105 44.9667 187.1794 -33.7252 -6.0078 -4.0077
# 4 1.7534 -16.7101 -33.7252 49.6737 5.8634 9.5162
# 5 -8.8219 20.4261 -6.0078 5.8634 45.5003 -3.9399
# 6 13.8438 9.3270 -4.0077 9.5162 -3.9399 24.1577
#
#
#
# Elastic Compliance Matrix: (Units=1/GPa)
#
#
# Indices 1 2 3 4 5 6 
#
# 1 0.023193 -0.000411 -0.005337 -0.002571 0.003227 -0.012479
# 2 -0.000411 0.016381 -0.003210 0.006546 -0.009633 -0.010771
# 3 -0.005337 -0.003210 0.007994 0.003515 0.001396 0.004467
# 4 -0.002571 0.006546 0.003515 0.028179 -0.007715 -0.012830
# 5 0.003227 -0.009633 0.001396 -0.007715 0.028961 0.009864
# 6 -0.012479 -0.010771 0.004467 -0.012830 0.009864 0.060108
#
#
# Mechanical properties :
#
#
# Convention : Reuss Voigt Hill
#
# Bulk Modulus (GPa) = 33.72503 59.50783 46.61643
# Shear Modulus (GPa) = 25.95831 40.34488 33.15160
#
# Velocity S-wave (km/s) = 3.22421 4.01957 3.64366
# Velocity P-wave (km/s) = 5.23131 6.73601 6.03077
#
# Compressibility (1/GPa) = 0.02965157
#
# Stress axis : x y z
#
# Youngs Moduli (GPa) = 43.11599 61.04761 125.09133
#
# Poissons Ratio (x) = 0.02508 0.66762
# Poissons Ratio (y) = 0.01771 0.40160
# Poissons Ratio (z) = 0.23011 0.19599
#
# Static dielectric constant tensor:
#      x y z
#    x 2.084210 0.090650 0.013690 
#    y 0.090650 2.080040 -0.013520 
#    z 0.013690 -0.013520 2.050710 
# 
# From -- ./inp_files/529985.got.cif
#   From: 2010.05.17/outbox.cif.g08.bks.cpg/sg2_265_cif.got.tgz:529985.got - 2010.06.03 11:33:40.
