data_PCOD9003583
_publ_section_title
;
Structure prediction by ZEFSAII (Michael W. Deem and Ramdas Pophale) SiO2 
 PCOD9003583
Probable space group: P -1
;
_chemical_formula_sum "Si O2"
_cell_formula_units_Z 14
_cell_length_a 18.750893
_cell_length_b 7.917250
_cell_length_c 14.147377
_cell_angle_alpha 56.447968
_cell_angle_beta 160.904264
_cell_angle_gamma 129.155696
_cell_volume 524.723275
_symmetry_space_group_name_H-M "P -1"
_symmetry_group_IT_number 2
_symmetry_cell_setting 'triclinic'
loop_
_space_group_symop_operation_xyz
x,y,z
-x,-y,-z
loop_
_atom_site_type_symbol
_atom_site_label
_atom_site_fract_x
_atom_site_fract_y
_atom_site_fract_z
Si Si1 0.407366 0.648171 0.704271
Si Si2 0.408196 0.193819 0.925646
Si Si3 0.056539 0.453074 0.734629
Si Si4 0.863992 0.598938 0.726266
Si Si5 0.215728 0.188607 0.263235
Si Si6 0.290873 0.671795 0.126311
Si Si7 0.097552 0.813721 0.531805
O O1 0.424673 0.426397 0.834357
O O2 0.354096 0.592726 0.542525
O O3 0.155556 0.650003 0.424440
O O4 0.594988 0.823126 0.958257
O O5 0.183224 0.022950 0.641240
O O6 0.650781 0.171646 0.202558
O O7 0.990666 0.609431 0.533182
O O8 0.078010 0.262762 0.755064
O O9 0.281241 0.629347 0.015733
O O10 0.810338 0.771982 0.670236
O O11 0.000000 0.500000 0.000000
O O12 0.067596 0.716429 0.867903
O O13 0.255868 0.425229 0.194336
O O14 0.463455 0.161234 0.574194
O O15 0.000000 0.000000 0.000000
#
# Coordination Sequence:
#
# PCOD9003583 Si02
#       7
#     2   2   2   2   2   2   2
#     4   9  18  33  53  73 110 142 179 230 276 329
#     4   9  18  32  51  81 104 140 187 225 266 337
#     4   9  18  34  51  74 110 146 169 227 282 324
#     4   9  19  37  57  80 114 152 183 233 290 334
#     4  10  21  37  61  86 107 149 194 234 284 339
#     4   9  20  39  56  81 119 145 186 237 282 338
#     4   9  18  32  52  78 106 141 181 220 276 330
#
# _framework density 26.680730000000001
#
# number of rings (size 3 to 8) (size 9 to 14) (size 15 to 20)
#    0.000    2.857    0.000    0.000    2.000    2.286 
#   10.286    0.000    6.286    0.000    0.000    0.000 
#    0.000    0.000    0.000    0.000    0.000    0.000 
#
# Total GULP energy -78120.750747 kJ/mol
# GULP energy per Si atom -5580.053625 kJ/mol
# Density = 2.662000 g / cm^3
# Si number density = 26.680730 Si / 1000 Ang^3
#
#
#
# Elastic Constant Matrix: (Units=GPa)
#
#
# Indices 1 2 3 4 5 6 
#
# 1 88.5414 12.1369 41.4971 13.2891 -32.9031 -27.9691
# 2 12.1369 44.2860 24.2179 21.1483 -14.4039 -2.6143
# 3 41.4971 24.2179 186.5056 41.2728 -39.8383 -21.4031
# 4 13.2891 21.1483 41.2728 53.1545 -13.6322 -13.4523
# 5 -32.9031 -14.4039 -39.8383 -13.6322 49.6674 9.0719
# 6 -27.9691 -2.6143 -21.4031 -13.4523 9.0719 35.8728
#
#
#
# Elastic Compliance Matrix: (Units=1/GPa)
#
#
# Indices 1 2 3 4 5 6 
#
# 1 0.019345 -0.002002 -0.001051 0.002512 0.009746 0.012787
# 2 -0.002002 0.029972 -0.000556 -0.011040 0.004815 -0.005066
# 3 -0.001051 -0.000556 0.007523 -0.004086 0.003850 0.001123
# 4 0.002512 -0.011040 -0.004086 0.028373 0.001325 0.009021
# 5 0.009746 0.004815 0.003850 0.001325 0.030904 0.002928
# 6 0.012787 -0.005066 0.001123 0.009021 0.002928 0.040789
#
#
# Mechanical properties :
#
#
# Convention : Reuss Voigt Hill
#
# Bulk Modulus (GPa) = 20.15209 52.78187 36.46698
# Shear Modulus (GPa) = 27.67557 43.83771 35.75664
#
# Velocity S-wave (km/s) = 3.22419 4.05785 3.66480
# Velocity P-wave (km/s) = 4.62925 6.46379 5.62186
#
# Compressibility (1/GPa) = 0.04962264
#
# Stress axis : x y z
#
# Youngs Moduli (GPa) = 51.69279 33.36428 132.91968
#
# Poissons Ratio (x) = 0.06678 0.13969
# Poissons Ratio (y) = 0.10347 0.07395
# Poissons Ratio (z) = 0.05433 0.01856
#
# Static dielectric constant tensor:
#      x y z
#    x 2.215240 -0.022680 -0.015720 
#    y -0.022680 2.183420 0.033310 
#    z -0.015720 0.033310 2.161370 
# 
# From -- ./inp_files/196661.got.cif
#   From: 2010.05.17/outbox.cif.g08.bks.cpg/sg2_99_cif.got.tgz:196661.got - 2010.06.03 11:33:40.
