data_PCOD9003523
_publ_section_title
;
Structure prediction by ZEFSAII (Michael W. Deem and Ramdas Pophale) SiO2 
 PCOD9003523
Probable space group: P -1
;
_chemical_formula_sum "Si O2"
_cell_formula_units_Z 14
_cell_length_a 23.235650
_cell_length_b 11.583771
_cell_length_c 9.560527
_cell_angle_alpha 140.393177
_cell_angle_beta 145.416437
_cell_angle_gamma 23.418807
_cell_volume 579.241398
_symmetry_space_group_name_H-M "P -1"
_symmetry_group_IT_number 2
_symmetry_cell_setting 'triclinic'
loop_
_space_group_symop_operation_xyz
x,y,z
-x,-y,-z
loop_
_atom_site_type_symbol
_atom_site_label
_atom_site_fract_x
_atom_site_fract_y
_atom_site_fract_z
Si Si1 0.145287 0.513264 0.716624
Si Si2 0.404338 0.685641 0.685082
Si Si3 0.140386 0.553141 0.305730
Si Si4 0.316402 0.484407 0.819138
Si Si5 0.309373 0.938947 0.433575
Si Si6 0.818268 0.099095 0.301675
Si Si7 0.049652 0.532369 0.834024
O O1 0.185609 0.632737 0.819328
O O2 0.990074 0.612072 0.442988
O O3 0.123514 0.548202 0.871063
O O4 0.296133 0.168874 0.659830
O O5 0.315085 0.829145 0.491872
O O6 0.534811 0.341977 0.602083
O O7 0.295196 0.810108 0.717883
O O8 0.511720 0.716134 0.954639
O O9 0.284931 0.365608 0.533448
O O10 0.120940 0.784757 0.423393
O O11 0.973777 0.762862 0.255192
O O12 0.154099 0.405233 0.063566
O O13 0.280251 0.707197 0.854579
O O14 0.135531 0.144070 0.204707
#
# Coordination Sequence:
#
# PCOD9003523 Si02
#       7
#     2   2   2   2   2   2   2
#     4   9  21  39  63  86 122 152 205 243 301 334
#     4  11  21  39  62  86 127 157 196 238 305 352
#     4   9  20  36  62  91 116 151 207 242 293 343
#     4  10  21  37  60  93 116 158 192 252 288 362
#     4   9  22  37  60  89 116 164 194 244 290 358
#     4   9  21  36  60  90 119 159 191 250 293 349
#     4   9  19  39  62  87 117 158 193 257 284 353
#
# _framework density 24.169544999999999
#
# number of rings (size 3 to 8) (size 9 to 14) (size 15 to 20)
#    1.714    0.857    0.000    1.286    2.000    3.429 
#    0.000    2.857    0.000    0.000    0.000    0.000 
#    0.000    0.000    0.000    0.000    0.000    0.000 
#
# Total GULP energy -78056.779041 kJ/mol
# GULP energy per Si atom -5575.484217 kJ/mol
# Density = 2.411453 g / cm^3
# Si number density = 24.169545 Si / 1000 Ang^3
#
#
#
# Elastic Constant Matrix: (Units=GPa)
#
#
# Indices 1 2 3 4 5 6 
#
# 1 113.0538 -1.9131 10.8602 3.2887 5.5769 -27.3259
# 2 -1.9131 76.4181 -6.6747 9.6105 -4.0949 -12.2430
# 3 10.8602 -6.6747 70.5471 2.2068 -11.8248 -14.5181
# 4 3.2887 9.6105 2.2068 20.6808 -4.4048 -5.0055
# 5 5.5769 -4.0949 -11.8248 -4.4048 20.8800 3.3389
# 6 -27.3259 -12.2430 -14.5181 -5.0055 3.3389 32.2439
#
#
#
# Elastic Compliance Matrix: (Units=1/GPa)
#
#
# Indices 1 2 3 4 5 6 
#
# 1 0.011828 0.001929 -0.000152 -0.001132 -0.004867 0.011017
# 2 0.001929 0.015495 0.003306 -0.005519 0.001961 0.007947
# 3 -0.000152 0.003306 0.017794 0.000625 0.009579 0.008244
# 4 -0.001132 -0.005519 0.000625 0.054339 0.010302 0.004595
# 5 -0.004867 0.001961 0.009579 0.010302 0.057726 -0.003446
# 6 0.011017 0.007947 0.008244 0.004595 -0.003446 0.048150
#
#
# Mechanical properties :
#
#
# Convention : Reuss Voigt Hill
#
# Bulk Modulus (GPa) = 18.08811 29.39597 23.74204
# Shear Modulus (GPa) = 23.40901 31.94406 27.67654
#
# Velocity S-wave (km/s) = 3.11550 3.63942 3.38760
# Velocity P-wave (km/s) = 4.52127 5.46345 5.01454
#
# Compressibility (1/GPa) = 0.05528493
#
# Stress axis : x y z
#
# Youngs Moduli (GPa) = 84.54180 64.53535 56.19998
#
# Poissons Ratio (x) = -0.12452 0.00852
# Poissons Ratio (y) = -0.16312 -0.18579
# Poissons Ratio (z) = 0.01281 -0.21334
#
# Static dielectric constant tensor:
#      x y z
#    x 1.947960 0.062940 0.023620 
#    y 0.062940 1.969510 0.015690 
#    z 0.023620 0.015690 1.970160 
# 
# From -- ./inp_files/207693.got.cif
#   From: 2010.05.17/outbox.cif.g08.bks.cpg/sg2_104_cif.got.tgz:207693.got - 2010.06.03 11:33:40.
