data_PCOD9003341
_publ_section_title
;
Structure prediction by ZEFSAII (Michael W. Deem and Ramdas Pophale) SiO2 
 PCOD9003341
Probable space group: P -1
;
_chemical_formula_sum "Si O2"
_cell_formula_units_Z 16
_cell_length_a 9.442532
_cell_length_b 9.049990
_cell_length_c 22.715060
_cell_angle_alpha 49.218621
_cell_angle_beta 51.042544
_cell_angle_gamma 31.498882
_cell_volume 755.198743
_symmetry_space_group_name_H-M "P -1"
_symmetry_group_IT_number 2
_symmetry_cell_setting 'triclinic'
loop_
_space_group_symop_operation_xyz
x,y,z
-x,-y,-z
loop_
_atom_site_type_symbol
_atom_site_label
_atom_site_fract_x
_atom_site_fract_y
_atom_site_fract_z
Si Si1 0.690736 0.214776 0.950927
Si Si2 0.008849 0.180909 0.702562
Si Si3 0.139343 0.044517 0.292174
Si Si4 0.738064 0.713537 0.472536
Si Si5 0.299779 0.357473 0.804624
Si Si6 0.130021 0.611779 0.042867
Si Si7 0.550155 0.420738 0.200954
Si Si8 0.247918 0.733414 0.462151
O O1 0.783823 0.305730 0.949628
O O2 0.572957 0.409407 0.872731
O O3 0.426267 0.306549 0.020711
O O4 0.958276 0.861644 0.971326
O O5 0.191599 0.207092 0.622106
O O6 0.707183 0.480558 0.726040
O O7 0.183920 0.931468 0.772580
O O8 0.945012 0.075735 0.694457
O O9 0.869115 0.395234 0.267104
O O10 0.400861 0.940984 0.220493
O O11 0.232847 0.898668 0.369478
O O12 0.729822 0.495423 0.514495
O O13 0.000000 0.500000 0.500000
O O14 0.500000 0.000000 0.500000
O O15 0.366572 0.457792 0.813205
O O16 0.087441 0.367377 0.880730
O O17 0.500000 0.500000 0.500000
O O18 0.000000 0.000000 0.500000
#
# Coordination Sequence:
#
# PCOD9003341 Si02
#       8
#     2   2   2   2   2   2   2   2
#     4  10  21  38  59  83 120 157 196 254 303 364
#     4  10  21  39  63  90 121 159 214 261 309 375
#     4  10  21  40  63  85 126 165 202 260 319 377
#     4  12  24  42  72  94 123 179 227 261 315 398
#     4  10  21  37  61  89 115 159 206 248 313 379
#     4  10  21  38  59  83 118 161 201 237 307 388
#     4  10  21  37  59  90 122 151 199 267 311 353
#     4  12  26  44  64  96 137 169 215 277 329 375
#
# _framework density 21.186475999999999
#
# number of rings (size 3 to 8) (size 9 to 14) (size 15 to 20)
#    0.000    1.500    1.250    3.750    3.500    1.000 
#    6.750    0.000    0.000    0.000    0.000    0.000 
#    0.000    0.000    0.000    0.000    0.000    0.000 
#
# Total GULP energy -89219.666224 kJ/mol
# GULP energy per Si atom -5576.229139 kJ/mol
# Density = 2.113825 g / cm^3
# Si number density = 21.186476 Si / 1000 Ang^3
#
#
#
# Elastic Constant Matrix: (Units=GPa)
#
#
# Indices 1 2 3 4 5 6 
#
# 1 55.4570 26.9230 12.6250 -14.2884 19.5524 -27.0770
# 2 26.9230 127.3799 4.8365 -1.0718 5.7705 -25.5134
# 3 12.6250 4.8365 92.7300 -8.2715 12.4546 -15.3531
# 4 -14.2884 -1.0718 -8.2715 32.6124 -18.3722 9.6076
# 5 19.5524 5.7705 12.4546 -18.3722 34.4925 -11.2206
# 6 -27.0770 -25.5134 -15.3531 9.6076 -11.2206 32.1733
#
#
#
# Elastic Compliance Matrix: (Units=1/GPa)
#
#
# Indices 1 2 3 4 5 6 
#
# 1 0.034763 -0.002166 0.000932 0.002416 -0.010743 0.023515
# 2 -0.002166 0.009642 0.000687 -0.002274 0.000425 0.006978
# 3 0.000932 0.000687 0.012023 0.000004 -0.003027 0.006010
# 4 0.002416 -0.002274 0.000004 0.045357 0.021249 -0.005902
# 5 -0.010743 0.000425 -0.003027 0.021249 0.047438 0.000050
# 6 0.023515 0.006978 0.006010 -0.005902 0.000050 0.061054
#
#
# Mechanical properties :
#
#
# Convention : Reuss Voigt Hill
#
# Bulk Modulus (GPa) = 18.07180 40.48175 29.27677
# Shear Modulus (GPa) = 21.75665 35.26780 28.51223
#
# Velocity S-wave (km/s) = 3.20802 4.08442 3.67246
# Velocity P-wave (km/s) = 4.71914 6.43368 5.64192
#
# Compressibility (1/GPa) = 0.05533484
#
# Stress axis : x y z
#
# Youngs Moduli (GPa) = 28.76614 103.71799 83.17184
#
# Poissons Ratio (x) = 0.22464 -0.07751
# Poissons Ratio (y) = 0.06230 -0.05717
# Poissons Ratio (z) = -0.02681 -0.07130
#
# Static dielectric constant tensor:
#      x y z
#    x 1.703650 -0.002020 0.002290 
#    y -0.002020 1.729620 -0.001020 
#    z 0.002290 -0.001020 1.836430 
# 
# From -- ./inp_files/351958.got.cif
#   From: 2010.05.17/outbox.cif.g08.bks.cpg/sg2_176_cif.got.tgz:351958.got - 2010.06.03 11:33:40.
