data_PCOD9003631
_publ_section_title
;
Structure prediction by ZEFSAII (Michael W. Deem and Ramdas Pophale) SiO2 
 PCOD9003631
Probable space group: P -1
;
_chemical_formula_sum "Si O2"
_cell_formula_units_Z 16
_cell_length_a 12.224869
_cell_length_b 7.528002
_cell_length_c 24.704149
_cell_angle_alpha 129.304470
_cell_angle_beta 156.365777
_cell_angle_gamma 49.558508
_cell_volume 687.922507
_symmetry_space_group_name_H-M "P -1"
_symmetry_group_IT_number 2
_symmetry_cell_setting 'triclinic'
loop_
_space_group_symop_operation_xyz
x,y,z
-x,-y,-z
loop_
_atom_site_type_symbol
_atom_site_label
_atom_site_fract_x
_atom_site_fract_y
_atom_site_fract_z
Si Si1 0.561291 0.431900 0.765947
Si Si2 0.407398 0.008863 0.672524
Si Si3 0.740710 0.738314 0.493059
Si Si4 0.064554 0.014836 0.625424
Si Si5 0.967291 0.279060 0.084394
Si Si6 0.125292 0.185762 0.015801
Si Si7 0.076382 0.580020 0.279611
Si Si8 0.350152 0.246485 0.428429
O O1 0.407995 0.277098 0.706173
O O2 0.402374 0.441358 0.638605
O O3 0.624880 0.684096 0.857537
O O4 0.878321 0.267930 0.876282
O O5 0.284967 0.992197 0.673127
O O6 0.224429 0.907593 0.525691
O O7 0.717610 0.856531 0.784272
O O8 0.823449 0.692522 0.583482
O O9 0.994278 0.796351 0.584644
O O10 0.490424 0.974054 0.428918
O O11 0.089667 0.207399 0.718369
O O12 0.975448 0.288257 0.024935
O O13 0.924794 0.516423 0.145135
O O14 0.792384 0.092865 0.990407
O O15 0.160696 0.356254 0.314039
O O16 0.375498 0.645741 0.416918
#
# Coordination Sequence:
#
# PCOD9003631 Si02
#       8
#     2   2   2   2   2   2   2   2
#     4   9  16  29  47  66  91 118 152 193 229 261
#     4   9  17  31  48  67  95 125 148 180 226 277
#     4   9  16  27  44  69  97 121 144 182 227 274
#     4   9  18  30  46  69  96 125 150 173 223 289
#     4  10  18  30  49  69  91 119 155 196 228 258
#     4   9  18  29  46  70  88 115 161 200 228 257
#     4  10  17  28  46  68  94 122 151 186 224 267
#     4   9  16  25  42  68  96 120 147 180 225 275
#
# _framework density 23.258433
#
# number of rings (size 3 to 8) (size 9 to 14) (size 15 to 20)
#    0.000    2.750    0.000    4.500    0.000    0.000 
#    0.000    1.250    0.000   12.750    0.000    0.000 
#    0.000    0.000    0.000    0.000    0.000    0.000 
#
# Total GULP energy -89368.093924 kJ/mol
# GULP energy per Si atom -5585.505870 kJ/mol
# Density = 2.320550 g / cm^3
# Si number density = 23.258433 Si / 1000 Ang^3
#
#
#
# Elastic Constant Matrix: (Units=GPa)
#
#
# Indices 1 2 3 4 5 6 
#
# 1 110.4956 12.9419 28.7562 14.6281 -3.1188 -4.0965
# 2 12.9419 43.6954 13.7761 18.6460 1.7840 1.2042
# 3 28.7562 13.7761 87.9307 21.2779 -7.1337 -15.3879
# 4 14.6281 18.6460 21.2779 31.8587 -2.8426 -5.7727
# 5 -3.1188 1.7840 -7.1337 -2.8426 33.7003 8.8189
# 6 -4.0965 1.2042 -15.3879 -5.7727 8.8189 23.0842
#
#
#
# Elastic Compliance Matrix: (Units=1/GPa)
#
#
# Indices 1 2 3 4 5 6 
#
# 1 0.010173 -0.001207 -0.002668 -0.002261 0.000416 -0.000635
# 2 -0.001207 0.031867 -0.001452 -0.018520 -0.001902 -0.006749
# 3 -0.002668 -0.001452 0.015578 -0.006821 0.000428 0.008118
# 4 -0.002261 -0.018520 -0.006821 0.049365 0.001447 0.007810
# 5 0.000416 -0.001902 0.000428 0.001447 0.033122 -0.011833
# 6 -0.000635 -0.006749 0.008118 0.007810 -0.011833 0.055444
#
#
# Mechanical properties :
#
#
# Convention : Reuss Voigt Hill
#
# Bulk Modulus (GPa) = 21.29219 39.23004 30.26111
# Shear Modulus (GPa) = 22.53675 30.17181 26.35428
#
# Velocity S-wave (km/s) = 3.11621 3.60563 3.36982
# Velocity P-wave (km/s) = 4.70342 5.85130 5.30848
#
# Compressibility (1/GPa) = 0.04696558
#
# Stress axis : x y z
#
# Youngs Moduli (GPa) = 98.29584 31.37994 64.19118
#
# Poissons Ratio (x) = 0.03787 0.17128
# Poissons Ratio (y) = 0.11862 0.09320
# Poissons Ratio (z) = 0.26227 0.04556
#
# Static dielectric constant tensor:
#      x y z
#    x 1.894390 0.025000 0.011630 
#    y 0.025000 1.944690 0.031310 
#    z 0.011630 0.031310 1.899270 
# 
# From -- ./inp_files/267364.got.cif
#   From: 2010.05.17/outbox.cif.g08.bks.cpg/sg2_134_cif.got.tgz:267364.got - 2010.06.03 11:33:40.
