data_PCOD9003480
_publ_section_title
;
Structure prediction by ZEFSAII (Michael W. Deem and Ramdas Pophale) SiO2 
 PCOD9003480
Probable space group: P -1
;
_chemical_formula_sum "Si O2"
_cell_formula_units_Z 12
_cell_length_a 9.093068
_cell_length_b 8.134152
_cell_length_c 9.554617
_cell_angle_alpha 115.137921
_cell_angle_beta 108.153377
_cell_angle_gamma 49.402778
_cell_volume 485.143085
_symmetry_space_group_name_H-M "P -1"
_symmetry_group_IT_number 2
_symmetry_cell_setting 'triclinic'
loop_
_space_group_symop_operation_xyz
x,y,z
-x,-y,-z
loop_
_atom_site_type_symbol
_atom_site_label
_atom_site_fract_x
_atom_site_fract_y
_atom_site_fract_z
Si Si1 0.690151 0.646274 0.634593
Si Si2 0.439603 0.347414 0.703349
Si Si3 0.335705 0.143519 0.815669
Si Si4 0.069539 0.082077 0.890914
Si Si5 0.847350 0.903928 0.764482
Si Si6 0.337564 0.475230 0.124399
O O1 0.632271 0.596188 0.455108
O O2 0.854730 0.682313 0.673713
O O3 0.722649 0.491571 0.718400
O O4 0.506914 0.895139 0.722605
O O5 0.306084 0.309408 0.741906
O O6 0.481147 0.519072 0.834903
O O7 0.657006 0.105102 0.695409
O O8 0.170374 0.128278 0.817869
O O9 0.382067 0.246206 0.994876
O O10 0.853288 0.315983 0.933071
O O11 0.174095 0.036645 0.054352
O O12 0.028543 0.901468 0.774726
#
# Coordination Sequence:
#
# PCOD9003480 Si02
#       6
#     2   2   2   2   2   2
#     4  11  22  40  63  85 122 156 194 239 298 347
#     4  10  23  40  60  87 122 158 190 242 295 350
#     4  11  21  38  62  93 110 155 207 238 282 349
#     4  10  21  37  60  90 118 152 194 250 290 338
#     4   9  19  37  60  82 118 153 195 232 298 336
#     4  11  22  39  62  88 120 152 197 244 294 340
#
# _framework density 24.734971000000002
#
# number of rings (size 3 to 8) (size 9 to 14) (size 15 to 20)
#    0.000    1.667    1.667    4.000    2.333    0.000 
#    3.000    8.333    3.667    0.000    0.000    0.000 
#    0.000    0.000    0.000    0.000    0.000    0.000 
#
# Total GULP energy -67137.387975 kJ/mol
# GULP energy per Si atom -5594.782331 kJ/mol
# Density = 2.467867 g / cm^3
# Si number density = 24.734971 Si / 1000 Ang^3
#
#
#
# Elastic Constant Matrix: (Units=GPa)
#
#
# Indices 1 2 3 4 5 6 
#
# 1 160.0444 30.0772 22.1586 10.1080 9.3311 20.0785
# 2 30.0772 55.8184 19.5296 -8.9129 -1.5245 -0.5447
# 3 22.1586 19.5296 106.8606 -20.4158 -7.0219 -5.2647
# 4 10.1080 -8.9129 -20.4158 32.5608 7.4873 -0.3965
# 5 9.3311 -1.5245 -7.0219 7.4873 30.8588 -6.6780
# 6 20.0785 -0.5447 -5.2647 -0.3965 -6.6780 35.6073
#
#
#
# Elastic Compliance Matrix: (Units=1/GPa)
#
#
# Indices 1 2 3 4 5 6 
#
# 1 0.008756 -0.004804 -0.002387 -0.004779 -0.003586 -0.006090
# 2 -0.004804 0.022135 -0.001609 0.006273 0.001335 0.003130
# 3 -0.002387 -0.001609 0.011862 0.007239 0.002364 0.003599
# 4 -0.004779 0.006273 0.007239 0.039765 -0.005540 0.003265
# 5 -0.003586 0.001335 0.002364 -0.005540 0.037463 0.009357
# 6 -0.006090 0.003130 0.003599 0.003265 0.009357 0.033889
#
#
# Mechanical properties :
#
#
# Convention : Reuss Voigt Hill
#
# Bulk Modulus (GPa) = 39.75258 51.80600 45.77929
# Shear Modulus (GPa) = 27.80021 36.53590 32.16806
#
# Velocity S-wave (km/s) = 3.35613 3.84747 3.61017
# Velocity P-wave (km/s) = 5.57893 6.38179 5.99382
#
# Compressibility (1/GPa) = 0.02515560
#
# Stress axis : x y z
#
# Youngs Moduli (GPa) = 114.20212 45.17678 84.29945
#
# Poissons Ratio (x) = 0.21702 0.20118
# Poissons Ratio (y) = 0.54860 0.13563
# Poissons Ratio (z) = 0.27255 0.07269
#
# Static dielectric constant tensor:
#      x y z
#    x 2.012500 0.020170 -0.005270 
#    y 0.020170 1.991080 -0.017980 
#    z -0.005270 -0.017980 1.904710 
# 
# From -- ./inp_files/144751.got.cif
#   From: 2010.05.17/outbox.cif.g08.bks.cpg/sg2_73_cif.got.tgz:144751.got - 2010.06.03 11:33:40.
