data_PCOD9003716
_publ_section_title
;
Structure prediction by ZEFSAII (Michael W. Deem and Ramdas Pophale) SiO2 
 PCOD9003716
Probable space group: P -1
;
_chemical_formula_sum "Si O2"
_cell_formula_units_Z 15
_cell_length_a 9.677865
_cell_length_b 16.381026
_cell_length_c 12.498012
_cell_angle_alpha 35.318933
_cell_angle_beta 28.572616
_cell_angle_gamma 38.762722
_cell_volume 533.358430
_symmetry_space_group_name_H-M "P -1"
_symmetry_group_IT_number 2
_symmetry_cell_setting 'triclinic'
loop_
_space_group_symop_operation_xyz
x,y,z
-x,-y,-z
loop_
_atom_site_type_symbol
_atom_site_label
_atom_site_fract_x
_atom_site_fract_y
_atom_site_fract_z
Si Si1 0.091644 0.990702 0.784607
Si Si2 0.148895 0.848643 0.690861
Si Si3 0.906842 0.442874 0.856444
Si Si4 0.488719 0.144704 0.963931
Si Si5 0.396803 0.692127 0.483061
Si Si6 0.000000 0.500000 0.500000
Si Si7 0.022410 0.765241 0.239308
Si Si8 0.373604 0.408570 0.913605
O O1 0.733967 0.017283 0.985322
O O2 0.116778 0.136230 0.673222
O O3 0.224719 0.958520 0.610387
O O4 0.167767 0.860642 0.957896
O O5 0.295067 0.813139 0.514030
O O6 0.197039 0.698597 0.883250
O O7 0.792874 0.893613 0.859917
O O8 0.260826 0.386588 0.683096
O O9 0.818997 0.496020 0.741722
O O10 0.798948 0.565916 0.886241
O O11 0.669956 0.226372 0.671779
O O12 0.364176 0.263736 0.012192
O O13 0.277943 0.552617 0.752691
O O14 0.822980 0.675389 0.411814
O O15 0.270715 0.618893 0.264824
#
# Coordination Sequence:
#
# PCOD9003716 Si02
#       8
#     2   2   2   2   2   1   2   2
#     4  10  21  42  63  90 132 172 208 254 322 376
#     4  10  21  39  63  92 126 173 205 260 314 373
#     4  10  22  36  64  96 126 161 209 268 317 374
#     4  10  22  38  63  92 127 171 213 254 309 385
#     4  10  21  37  61  96 125 166 211 262 313 368
#     4  12  20  40  66  98 122 162 220 264 314 376
#     4  10  22  39  69  93 125 169 207 266 318 377
#     4  10  21  39  61  97 130 162 205 267 327 363
#
# _framework density 28.123676
#
# number of rings (size 3 to 8) (size 9 to 14) (size 15 to 20)
#    0.000    1.867    2.667    0.800    0.000    8.000 
#    0.000    0.000    8.800    3.200    0.000    0.000 
#    0.000    0.000    0.000    0.000    0.000    0.000 
#
# Total GULP energy -83863.669283 kJ/mol
# GULP energy per Si atom -5590.911286 kJ/mol
# Density = 2.805967 g / cm^3
# Si number density = 28.123676 Si / 1000 Ang^3
#
#
#
# Elastic Constant Matrix: (Units=GPa)
#
#
# Indices 1 2 3 4 5 6 
#
# 1 92.6736 41.6267 31.9258 13.9436 13.7790 10.4627
# 2 41.6267 153.9851 52.7173 13.4668 19.9266 40.8235
# 3 31.9258 52.7173 113.2033 9.2966 21.0550 11.3259
# 4 13.9436 13.4668 9.2966 52.8120 -0.6312 18.6662
# 5 13.7790 19.9266 21.0550 -0.6312 50.9833 16.9937
# 6 10.4627 40.8235 11.3259 18.6662 16.9937 71.1772
#
#
#
# Elastic Compliance Matrix: (Units=1/GPa)
#
#
# Indices 1 2 3 4 5 6 
#
# 1 0.013311 -0.002703 -0.001972 -0.002924 -0.002159 0.001190
# 2 -0.002703 0.009539 -0.003235 0.000499 -0.000100 -0.004666
# 3 -0.001972 -0.003235 0.011494 -0.001237 -0.003453 0.001465
# 4 -0.002924 0.000499 -0.001237 0.022056 0.003470 -0.006272
# 5 -0.002159 -0.000100 -0.003453 0.003470 0.023577 -0.005615
# 6 0.001190 -0.004666 0.001465 -0.006272 -0.005615 0.019303
#
#
# Mechanical properties :
#
#
# Convention : Reuss Voigt Hill
#
# Bulk Modulus (GPa) = 53.99149 68.04464 61.01807
# Shear Modulus (GPa) = 41.22845 50.56732 45.89789
#
# Velocity S-wave (km/s) = 3.83295 4.24492 4.04419
# Velocity P-wave (km/s) = 6.23123 6.94789 6.59930
#
# Compressibility (1/GPa) = 0.01852144
#
# Stress axis : x y z
#
# Youngs Moduli (GPa) = 75.12563 104.83486 87.00449
#
# Poissons Ratio (x) = 0.28342 0.17160
# Poissons Ratio (y) = 0.20310 0.28148
# Poissons Ratio (z) = 0.14817 0.33916
#
# Static dielectric constant tensor:
#      x y z
#    x 1.267310 -0.389960 0.277080 
#    y -0.389960 2.006270 0.183290 
#    z 0.277080 0.183290 2.028390 
# 
# From -- ./inp_files/435419.got.cif
#   From: 2010.05.17/outbox.cif.g08.bks.cpg/sg2_218_cif.got.tgz:435419.got - 2010.06.03 11:33:40.
