data_PCOD9004162
_publ_section_title
;
Structure prediction by ZEFSAII (Michael W. Deem and Ramdas Pophale) SiO2 
 PCOD9004162
Probable space group: P -1
;
_chemical_formula_sum "Si O2"
_cell_formula_units_Z 16
_cell_length_a 9.406707
_cell_length_b 7.119143
_cell_length_c 10.911237
_cell_angle_alpha 102.792239
_cell_angle_beta 107.084193
_cell_angle_gamma 73.296412
_cell_volume 661.455858
_symmetry_space_group_name_H-M "P -1"
_symmetry_group_IT_number 2
_symmetry_cell_setting 'triclinic'
loop_
_space_group_symop_operation_xyz
x,y,z
-x,-y,-z
loop_
_atom_site_type_symbol
_atom_site_label
_atom_site_fract_x
_atom_site_fract_y
_atom_site_fract_z
Si Si1 0.322638 0.805328 0.231416
Si Si2 0.830374 0.766606 0.837747
Si Si3 0.823721 0.261936 0.057121
Si Si4 0.333996 0.976711 0.499542
Si Si5 0.925433 0.665380 0.600028
Si Si6 0.407824 0.383533 0.872070
Si Si7 0.883109 0.037617 0.360894
Si Si8 0.757232 0.875109 0.092404
O O1 0.494751 0.676880 0.233904
O O2 0.289910 0.037503 0.214575
O O3 0.287038 0.825657 0.368027
O O4 0.222227 0.718982 0.095868
O O5 0.863933 0.615725 0.710158
O O6 0.995516 0.813864 0.903729
O O7 0.790878 0.730468 0.962060
O O8 0.758192 0.467001 0.142594
O O9 0.744645 0.094725 0.068088
O O10 0.220227 0.190990 0.481052
O O11 0.286282 0.913111 0.612483
O O12 0.500000 0.000000 0.500000
O O13 0.000000 0.500000 0.500000
O O14 0.053720 0.793398 0.666870
O O15 0.389837 0.177159 0.893212
O O16 0.500000 0.500000 0.000000
O O17 0.877495 0.869852 0.233937
O O18 0.000000 0.000000 0.500000
#
# Coordination Sequence:
#
# PCOD9004162 Si02
#       8
#     2   2   2   2   2   2   2   2
#     4   9  19  37  60  83 125 164 208 256 317 377
#     4  10  21  37  67  93 121 170 210 273 325 377
#     4  10  21  37  64  94 126 161 212 267 324 375
#     4  10  21  39  62  87 121 174 213 254 325 384
#     4  10  22  42  62  93 130 161 219 268 317 386
#     4  10  23  40  59  96 131 170 208 267 327 390
#     4  10  22  38  64  93 123 176 215 257 331 388
#     4  11  21  40  67  92 132 167 218 264 329 388
#
# _framework density 24.189066
#
# number of rings (size 3 to 8) (size 9 to 14) (size 15 to 20)
#    0.000    2.000    1.250    2.250    3.500    8.000 
#    4.500    0.625    0.000    0.000    0.000    0.000 
#    0.000    0.000    0.000    0.000    0.000    0.000 
#
# Total GULP energy -89135.062761 kJ/mol
# GULP energy per Si atom -5570.941423 kJ/mol
# Density = 2.413401 g / cm^3
# Si number density = 24.189066 Si / 1000 Ang^3
#
#
#
# Elastic Constant Matrix: (Units=GPa)
#
#
# Indices 1 2 3 4 5 6 
#
# 1 82.8144 21.7749 4.8919 3.7046 -5.6742 -13.3517
# 2 21.7749 42.9635 14.8630 14.9360 -1.7454 -9.8368
# 3 4.8919 14.8630 137.8323 6.7259 -27.4649 -12.6327
# 4 3.7046 14.9360 6.7259 32.0121 -3.0371 -9.1721
# 5 -5.6742 -1.7454 -27.4649 -3.0371 44.5984 13.7355
# 6 -13.3517 -9.8368 -12.6327 -9.1721 13.7355 33.8438
#
#
#
# Elastic Compliance Matrix: (Units=1/GPa)
#
#
# Indices 1 2 3 4 5 6 
#
# 1 0.014684 -0.007749 0.000738 0.003074 0.000911 0.004280
# 2 -0.007749 0.033582 -0.003083 -0.013507 -0.003512 0.003318
# 3 0.000738 -0.003083 0.008626 0.000196 0.005116 0.000591
# 4 0.003074 -0.013507 0.000196 0.039445 0.000217 0.007962
# 5 0.000911 -0.003512 0.005116 0.000217 0.028758 -0.010364
# 6 0.004280 0.003318 0.000591 0.007962 -0.010364 0.038785
#
#
# Mechanical properties :
#
#
# Convention : Reuss Voigt Hill
#
# Bulk Modulus (GPa) = 27.24519 38.51887 32.88203
# Shear Modulus (GPa) = 25.47087 36.89621 31.18354
#
# Velocity S-wave (km/s) = 3.24850 3.90978 3.59438
# Velocity P-wave (km/s) = 5.03570 6.02831 5.55422
#
# Compressibility (1/GPa) = 0.03670372
#
# Stress axis : x y z
#
# Youngs Moduli (GPa) = 68.10116 29.77779 115.93421
#
# Poissons Ratio (x) = 0.23076 -0.08559
# Poissons Ratio (y) = 0.52774 0.35741
# Poissons Ratio (z) = -0.05027 0.09180
#
# Static dielectric constant tensor:
#      x y z
#    x 1.964490 0.002360 0.009890 
#    y 0.002360 1.985740 -0.035240 
#    z 0.009890 -0.035240 2.045300 
# 
# From -- ./inp_files/380388.got.cif
#   From: 2010.05.17/outbox.cif.g08.bks.cpg/sg2_191_cif.got.tgz:380388.got - 2010.06.03 11:33:40.
