data_PCOD9004953
_publ_section_title
;
Structure prediction by ZEFSAII (Michael W. Deem and Ramdas Pophale) SiO2 
 PCOD9004953
Probable space group: P -1
;
_chemical_formula_sum "Si O2"
_cell_formula_units_Z 16
_cell_length_a 7.187068
_cell_length_b 14.318461
_cell_length_c 21.036859
_cell_angle_alpha 159.384937
_cell_angle_beta 60.111460
_cell_angle_gamma 110.396810
_cell_volume 609.574552
_symmetry_space_group_name_H-M "P -1"
_symmetry_group_IT_number 2
_symmetry_cell_setting 'triclinic'
loop_
_space_group_symop_operation_xyz
x,y,z
-x,-y,-z
loop_
_atom_site_type_symbol
_atom_site_label
_atom_site_fract_x
_atom_site_fract_y
_atom_site_fract_z
Si Si1 0.099189 0.771281 0.592902
Si Si2 0.251648 0.448772 0.066608
Si Si3 0.964362 0.224799 0.248830
Si Si4 0.621022 0.184504 0.943446
Si Si5 0.469842 0.920200 0.315670
Si Si6 0.379572 0.763796 0.420959
Si Si7 0.707717 0.009382 0.059674
Si Si8 0.013670 0.376002 0.660040
O O1 0.014370 0.510749 0.429972
O O2 0.116050 0.823399 0.698108
O O3 0.314250 0.708456 0.469754
O O4 0.877430 0.048650 0.786883
O O5 0.444076 0.249389 0.956581
O O6 0.329205 0.712131 0.208896
O O7 0.019264 0.560440 0.218438
O O8 0.293150 0.257702 0.875453
O O9 0.200669 0.987818 0.025552
O O10 0.768123 0.223138 0.231599
O O11 0.566373 0.478031 0.177306
O O12 0.547079 0.979479 0.873359
O O13 0.529796 0.988375 0.419782
O O14 0.284018 0.201175 0.491754
O O15 0.143729 0.803443 0.448027
O O16 0.880821 0.682961 0.844050
#
# Coordination Sequence:
#
# PCOD9004953 Si02
#       8
#     2   2   2   2   2   2   2   2
#     4  11  22  39  58  88 118 159 194 254 293 347
#     4   9  22  40  60  95 120 147 208 246 279 379
#     4  10  21  38  60  82 125 148 205 252 285 359
#     4  10  22  40  61  83 125 156 194 247 310 347
#     4  11  22  39  67  89 118 164 196 243 303 351
#     4  10  23  40  59  92 123 154 205 246 288 366
#     4   9  20  40  57  89 117 157 196 250 292 358
#     4  10  21  41  62  86 129 157 192 250 303 347
#
# _framework density 26.247816
#
# number of rings (size 3 to 8) (size 9 to 14) (size 15 to 20)
#    0.000    2.250    2.500    1.125    5.250    3.000 
#    0.000    5.625    0.000    0.000    0.000    0.000 
#    0.000    0.000    0.000    0.000    0.000    0.000 
#
# Total GULP energy -89445.086264 kJ/mol
# GULP energy per Si atom -5590.317891 kJ/mol
# Density = 2.618807 g / cm^3
# Si number density = 26.247816 Si / 1000 Ang^3
#
#
#
# Elastic Constant Matrix: (Units=GPa)
#
#
# Indices 1 2 3 4 5 6 
#
# 1 90.7735 -11.2090 35.2903 5.6374 14.9722 -3.4257
# 2 -11.2090 38.8239 7.5004 -12.4457 -9.6863 -8.7393
# 3 35.2903 7.5004 104.2732 -29.6866 23.6966 -8.4842
# 4 5.6374 -12.4457 -29.6866 33.4526 -5.3507 13.9142
# 5 14.9722 -9.6863 23.6966 -5.3507 36.5855 -13.2651
# 6 -3.4257 -8.7393 -8.4842 13.9142 -13.2651 27.7998
#
#
#
# Elastic Compliance Matrix: (Units=1/GPa)
#
#
# Indices 1 2 3 4 5 6 
#
# 1 0.015631 0.004376 -0.008491 -0.011214 0.001106 0.006851
# 2 0.004376 0.038314 -0.006154 0.003603 0.019461 0.018188
# 3 -0.008491 -0.006154 0.020920 0.021234 -0.013565 -0.013697
# 4 -0.011214 0.003603 0.021234 0.062837 -0.009872 -0.029930
# 5 0.001106 0.019461 -0.013565 -0.009872 0.050706 0.031251
# 6 0.006851 0.018188 -0.013697 -0.029930 0.031251 0.068245
#
#
# Mechanical properties :
#
#
# Convention : Reuss Voigt Hill
#
# Bulk Modulus (GPa) = 18.40681 33.00377 25.70529
# Shear Modulus (GPa) = 16.93192 33.05351 24.99271
#
# Velocity S-wave (km/s) = 2.54260 3.55249 3.08909
# Velocity P-wave (km/s) = 3.95571 5.42477 4.74741
#
# Compressibility (1/GPa) = 0.05432771
#
# Stress axis : x y z
#
# Youngs Moduli (GPa) = 63.97711 26.09991 47.80059
#
# Poissons Ratio (x) = -0.11422 0.40589
# Poissons Ratio (y) = -0.27999 0.29416
# Poissons Ratio (z) = 0.54325 0.16061
#
# Static dielectric constant tensor:
#      x y z
#    x 2.069010 0.032480 0.045580 
#    y 0.032480 2.210940 0.029410 
#    z 0.045580 0.029410 2.038420 
# 
# From -- ./inp_files/328378.got.cif
#   From: 2010.05.17/outbox.cif.g08.bks.cpg/sg2_165_cif.got.tgz:328378.got - 2010.06.03 11:33:40.
