data_PCOD9004616
_publ_section_title
;
Structure prediction by ZEFSAII (Michael W. Deem and Ramdas Pophale) SiO2 
 PCOD9004616
Probable space group: P -1
;
_chemical_formula_sum "Si O2"
_cell_formula_units_Z 14
_cell_length_a 9.514283
_cell_length_b 7.708831
_cell_length_c 10.564028
_cell_angle_alpha 105.893859
_cell_angle_beta 46.872484
_cell_angle_gamma 87.758816
_cell_volume 514.818312
_symmetry_space_group_name_H-M "P -1"
_symmetry_group_IT_number 2
_symmetry_cell_setting 'triclinic'
loop_
_space_group_symop_operation_xyz
x,y,z
-x,-y,-z
loop_
_atom_site_type_symbol
_atom_site_label
_atom_site_fract_x
_atom_site_fract_y
_atom_site_fract_z
Si Si1 0.025504 0.977529 0.327233
Si Si2 0.748715 0.230482 0.170386
Si Si3 0.529981 0.181577 0.953441
Si Si4 0.593176 0.161556 0.620852
Si Si5 0.667934 0.560326 0.667862
Si Si6 0.029251 0.648422 0.725683
Si Si7 0.172435 0.203596 0.880514
O O1 0.797374 0.991532 0.424726
O O2 0.051558 0.161296 0.272980
O O3 0.000000 0.000000 0.500000
O O4 0.243834 0.816390 0.150094
O O5 0.530435 0.315674 0.260822
O O6 0.780842 0.327367 0.301993
O O7 0.784557 0.010544 0.136027
O O8 0.944174 0.247532 0.974353
O O9 0.533831 0.134030 0.794944
O O10 0.361673 0.360178 0.156042
O O11 0.500000 0.000000 0.000000
O O12 0.656737 0.349032 0.633132
O O13 0.379422 0.208044 0.688656
O O14 0.874590 0.535963 0.457854
O O15 0.877041 0.656850 0.937088
#
# Coordination Sequence:
#
# PCOD9004616 Si02
#       7
#     2   2   2   2   2   2   2
#     4   9  19  35  56  79 110 144 181 232 277 325
#     4   9  19  35  63  80 113 151 192 226 266 333
#     4  11  22  38  63  80 108 151 195 226 275 341
#     4  10  21  38  55  86 116 143 181 240 285 325
#     4  11  21  35  57  85 117 144 179 237 293 318
#     4   9  18  35  56  82 112 147 184 232 269 330
#     4   9  19  37  62  81 112 150 196 219 273 333
#
# _framework density 27.194058999999999
#
# number of rings (size 3 to 8) (size 9 to 14) (size 15 to 20)
#    0.857    1.429    0.000    3.429    0.000    0.571 
#    0.000   15.000    0.000    0.000    0.000    0.000 
#    0.000    0.000    0.000    0.000    0.000    0.000 
#
# Total GULP energy -78153.331924 kJ/mol
# GULP energy per Si atom -5582.380852 kJ/mol
# Density = 2.713216 g / cm^3
# Si number density = 27.194059 Si / 1000 Ang^3
#
#
#
# Elastic Constant Matrix: (Units=GPa)
#
#
# Indices 1 2 3 4 5 6 
#
# 1 104.2354 -3.3806 7.4187 0.2634 -10.0550 10.3536
# 2 -3.3806 39.5277 -6.7724 -3.9835 4.8207 -1.7230
# 3 7.4187 -6.7724 155.8233 2.1260 -21.5837 21.3088
# 4 0.2634 -3.9835 2.1260 26.3424 5.0259 -4.4287
# 5 -10.0550 4.8207 -21.5837 5.0259 49.2121 -4.9060
# 6 10.3536 -1.7230 21.3088 -4.4287 -4.9060 40.1998
#
#
#
# Elastic Compliance Matrix: (Units=1/GPa)
#
#
# Indices 1 2 3 4 5 6 
#
# 1 0.010033 0.000460 0.000161 -0.000830 0.001910 -0.002508
# 2 0.000460 0.026253 0.000575 0.004565 -0.002603 0.000887
# 3 0.000161 0.000575 0.007390 -0.001718 0.003019 -0.003755
# 4 -0.000830 0.004565 -0.001718 0.040625 -0.005002 0.005185
# 5 0.001910 -0.002603 0.003019 -0.005002 0.022803 0.000028
# 6 -0.002508 0.000887 -0.003755 0.005185 0.000028 0.028125
#
#
# Mechanical properties :
#
#
# Convention : Reuss Voigt Hill
#
# Bulk Modulus (GPa) = 21.70753 32.67976 27.19365
# Shear Modulus (GPa) = 33.73993 43.30557 38.52275
#
# Velocity S-wave (km/s) = 3.52619 3.99490 3.76784
# Velocity P-wave (km/s) = 4.95767 5.77255 5.38056
#
# Compressibility (1/GPa) = 0.04606696
#
# Stress axis : x y z
#
# Youngs Moduli (GPa) = 99.67512 38.09125 135.31931
#
# Poissons Ratio (x) = -0.01751 -0.02182
# Poissons Ratio (y) = -0.04582 -0.07779
# Poissons Ratio (z) = -0.01607 -0.02190
#
# Static dielectric constant tensor:
#      x y z
#    x 2.247370 0.036100 0.037280 
#    y 0.036100 2.068230 -0.032770 
#    z 0.037280 -0.032770 2.270780 
# 
# From -- ./inp_files/513515.got.cif
#   From: 2010.05.17/outbox.cif.g08.bks.cpg/sg2_257_cif.got.tgz:513515.got - 2010.06.03 11:33:40.
