data_PCOD9004746
_publ_section_title
;
Structure prediction by ZEFSAII (Michael W. Deem and Ramdas Pophale) SiO2 
 PCOD9004746
Probable space group: P -1
;
_chemical_formula_sum "Si O2"
_cell_formula_units_Z 11
_cell_length_a 12.782594
_cell_length_b 8.309053
_cell_length_c 7.224430
_cell_angle_alpha 83.947109
_cell_angle_beta 68.328253
_cell_angle_gamma 136.112241
_cell_volume 403.823415
_symmetry_space_group_name_H-M "P -1"
_symmetry_group_IT_number 2
_symmetry_cell_setting 'triclinic'
loop_
_space_group_symop_operation_xyz
x,y,z
-x,-y,-z
loop_
_atom_site_type_symbol
_atom_site_label
_atom_site_fract_x
_atom_site_fract_y
_atom_site_fract_z
Si Si1 0.839496 0.266245 0.480507
Si Si2 0.539823 0.023656 0.188522
Si Si3 0.000000 0.000000 0.500000
Si Si4 0.914536 0.655218 0.944303
Si Si5 0.377485 0.306080 0.334884
Si Si6 0.274461 0.105933 0.851756
O O1 0.000000 0.500000 0.500000
O O2 0.965070 0.358383 0.212305
O O3 0.676677 0.208618 0.554229
O O4 0.712217 0.959991 0.670871
O O5 0.643767 0.975139 0.153254
O O6 0.687825 0.335533 0.132638
O O7 0.500000 0.000000 0.000000
O O8 0.953447 0.831128 0.735581
O O9 0.765683 0.718616 0.626978
O O10 0.036518 0.841852 0.029127
O O11 0.341285 0.223820 0.584352
O O12 0.604105 0.627110 0.131129
#
# Coordination Sequence:
#
# PCOD9004746 Si02
#       6
#     2   2   1   2   2   2
#     4  10  21  38  58  88 118 149 200 244 287 348
#     4  12  22  36  63  87 118 157 197 240 295 343
#     4   8  16  34  60  82 112 152 190 230 290 338
#     4  10  21  39  62  88 118 154 196 241 293 349
#     4   9  19  36  60  85 117 156 195 239 292 347
#     4   9  20  37  58  87 120 153 194 241 293 350
#
# _framework density 27.239632
#
# number of rings (size 3 to 8) (size 9 to 14) (size 15 to 20)
#    0.000    2.545    1.818    1.636    2.545    2.909 
#    0.000    9.091    0.000    0.000    0.000    0.000 
#    0.000    0.000    0.000    0.000    0.000    0.000 
#
# Total GULP energy -61346.096493 kJ/mol
# GULP energy per Si atom -5576.917863 kJ/mol
# Density = 2.717763 g / cm^3
# Si number density = 27.239632 Si / 1000 Ang^3
#
#
#
# Elastic Constant Matrix: (Units=GPa)
#
#
# Indices 1 2 3 4 5 6 
#
# 1 150.8285 67.1158 43.0945 -12.1578 18.5818 42.1132
# 2 67.1158 236.3454 36.9153 -60.3223 -3.7666 36.1086
# 3 43.0945 36.9153 83.9880 -12.7963 -4.1230 17.1407
# 4 -12.1578 -60.3223 -12.7963 38.0700 1.9415 -11.1833
# 5 18.5818 -3.7666 -4.1230 1.9415 40.3743 3.9041
# 6 42.1132 36.1086 17.1407 -11.1833 3.9041 50.1053
#
#
#
# Elastic Compliance Matrix: (Units=1/GPa)
#
#
# Indices 1 2 3 4 5 6 
#
# 1 0.011008 -0.002446 -0.004002 -0.003360 -0.004914 -0.006487
# 2 -0.002446 0.008133 -0.000229 0.011588 0.001425 -0.001252
# 3 -0.004002 -0.000229 0.014901 0.002848 0.003321 -0.001192
# 4 -0.003360 0.011588 0.002848 0.045564 0.000375 0.003639
# 5 -0.004914 0.001425 0.003321 0.000375 0.027493 -0.000091
# 6 -0.006487 -0.001252 -0.001192 0.003639 -0.000091 0.027540
#
#
# Mechanical properties :
#
#
# Convention : Reuss Voigt Hill
#
# Bulk Modulus (GPa) = 48.33712 85.04590 66.69151
# Shear Modulus (GPa) = 32.28157 47.31233 39.79695
#
# Velocity S-wave (km/s) = 3.44626 4.17213 3.82644
# Velocity P-wave (km/s) = 5.79821 7.38228 6.63767
#
# Compressibility (1/GPa) = 0.02068804
#
# Stress axis : x y z
#
# Youngs Moduli (GPa) = 90.84490 122.95603 67.11011
#
# Poissons Ratio (x) = 0.30069 0.26860
# Poissons Ratio (y) = 0.22216 0.01536
# Poissons Ratio (z) = 0.36360 0.02814
#
# Static dielectric constant tensor:
#      x y z
#    x 2.452360 -0.009450 -0.172530 
#    y -0.009450 2.281960 -0.045980 
#    z -0.172530 -0.045980 2.247760 
# 
# From -- ./inp_files/234220.got.cif
#   From: 2010.05.17/outbox.cif.g08.bks.cpg/sg2_118_cif.got.tgz:234220.got - 2010.06.03 11:33:40.
