data_PCOD9004775
_publ_section_title
;
Structure prediction by ZEFSAII (Michael W. Deem and Ramdas Pophale) SiO2 
 PCOD9004775
Probable space group: P -1
;
_chemical_formula_sum "Si O2"
_cell_formula_units_Z 16
_cell_length_a 9.363619
_cell_length_b 11.063012
_cell_length_c 27.504310
_cell_angle_alpha 152.195174
_cell_angle_beta 151.919933
_cell_angle_gamma 36.167961
_cell_volume 620.877680
_symmetry_space_group_name_H-M "P -1"
_symmetry_group_IT_number 2
_symmetry_cell_setting 'triclinic'
loop_
_space_group_symop_operation_xyz
x,y,z
-x,-y,-z
loop_
_atom_site_type_symbol
_atom_site_label
_atom_site_fract_x
_atom_site_fract_y
_atom_site_fract_z
Si Si1 0.697888 0.286087 0.713370
Si Si2 0.377775 0.822486 0.705360
Si Si3 0.434805 0.285616 0.527879
Si Si4 0.863104 0.000043 0.114491
Si Si5 0.279378 0.193943 0.896454
Si Si6 0.096765 0.075084 0.619532
Si Si7 0.160304 0.402454 0.668361
Si Si8 0.961632 0.116432 0.083761
O O1 0.554418 0.337442 0.636184
O O2 0.449438 0.391259 0.715631
O O3 0.737183 0.968532 0.614883
O O4 0.030561 0.369911 0.852044
O O5 0.236283 0.559219 0.555011
O O6 0.358858 0.933978 0.794043
O O7 0.235896 0.042788 0.703485
O O8 0.734857 0.743960 0.771441
O O9 0.741099 0.194955 0.557498
O O10 0.906800 0.848953 0.124960
O O11 0.953242 0.292707 0.251933
O O12 0.983232 0.927794 0.070655
O O13 0.500000 0.000000 0.000000
O O14 0.616917 0.267707 0.035262
O O15 0.081526 0.783491 0.490392
O O16 0.260222 0.255254 0.696467
O O17 0.000000 0.000000 0.000000
#
# Coordination Sequence:
#
# PCOD9004775 Si02
#       8
#     2   2   2   2   2   2   2   2
#     4  10  21  38  58  92 132 162 206 260 317 376
#     4  11  21  38  68  89 125 173 212 257 320 365
#     4  10  21  38  60  93 128 164 211 261 306 379
#     4  10  21  40  66  88 122 164 212 264 311 372
#     4  10  21  38  63  91 123 167 214 255 313 375
#     4  10  22  40  60  98 131 168 211 254 317 381
#     4  10  22  40  60  92 137 162 205 267 311 377
#     4   9  21  40  62  88 117 157 213 262 299 375
#
# _framework density 25.769971000000002
#
# number of rings (size 3 to 8) (size 9 to 14) (size 15 to 20)
#    0.000    2.000    1.250    1.500    3.500    0.500 
#    0.000    5.625   19.250    0.000    0.000    0.000 
#    0.000    0.000    0.000    0.000    0.000    0.000 
#
# Total GULP energy -89314.561487 kJ/mol
# GULP energy per Si atom -5582.160093 kJ/mol
# Density = 2.571132 g / cm^3
# Si number density = 25.769971 Si / 1000 Ang^3
#
#
#
# Elastic Constant Matrix: (Units=GPa)
#
#
# Indices 1 2 3 4 5 6 
#
# 1 160.1048 16.3044 23.7385 -6.8338 -11.0872 3.2046
# 2 16.3044 29.0034 25.5810 -1.5375 -4.5808 -3.2004
# 3 23.7385 25.5810 67.5016 4.5288 -7.9834 -10.2013
# 4 -6.8338 -1.5375 4.5288 45.0973 -5.4462 -3.8550
# 5 -11.0872 -4.5808 -7.9834 -5.4462 39.7322 -13.4342
# 6 3.2046 -3.2004 -10.2013 -3.8550 -13.4342 23.9921
#
#
#
# Elastic Compliance Matrix: (Units=1/GPa)
#
#
# Indices 1 2 3 4 5 6 
#
# 1 0.006875 -0.002278 -0.001674 0.001168 0.001097 -0.001132
# 2 -0.002278 0.053467 -0.019194 0.003846 0.002668 0.001387
# 3 -0.001674 -0.019194 0.025247 -0.001730 0.006046 0.011506
# 4 0.001168 0.003846 -0.001730 0.023968 0.006021 0.006844
# 5 0.001097 0.002668 0.006046 0.006021 0.035883 0.023840
# 6 -0.001132 0.001387 0.011506 0.006844 0.023840 0.061357
#
#
# Mechanical properties :
#
#
# Convention : Reuss Voigt Hill
#
# Bulk Modulus (GPa) = 25.44761 43.09527 34.27144
# Shear Modulus (GPa) = 18.78375 34.49673 26.64024
#
# Velocity S-wave (km/s) = 2.70275 3.66271 3.21872
# Velocity P-wave (km/s) = 4.43127 5.88614 5.20974
#
# Compressibility (1/GPa) = 0.03929641
#
# Stress axis : x y z
#
# Youngs Moduli (GPa) = 145.46432 18.70325 39.60859
#
# Poissons Ratio (x) = 0.04260 0.06631
# Poissons Ratio (y) = 0.33134 0.76025
# Poissons Ratio (z) = 0.24353 0.35899
#
# Static dielectric constant tensor:
#      x y z
#    x 2.078140 0.018670 -0.013130 
#    y 0.018670 2.063790 0.008470 
#    z -0.013130 0.008470 2.039540 
# 
# From -- ./inp_files/448356.got.cif
#   From: 2010.05.17/outbox.cif.g08.bks.cpg/sg2_225_cif.got.tgz:448356.got - 2010.06.03 11:33:40.
