data_PCOD9004546
_publ_section_title
;
Structure prediction by ZEFSAII (Michael W. Deem and Ramdas Pophale) SiO2 
 PCOD9004546
Probable space group: P -1
;
_chemical_formula_sum "Si O2"
_cell_formula_units_Z 16
_cell_length_a 5.077775
_cell_length_b 8.657780
_cell_length_c 18.765594
_cell_angle_alpha 80.023454
_cell_angle_beta 99.023409
_cell_angle_gamma 128.676730
_cell_volume 633.041490
_symmetry_space_group_name_H-M "P -1"
_symmetry_group_IT_number 2
_symmetry_cell_setting 'triclinic'
loop_
_space_group_symop_operation_xyz
x,y,z
-x,-y,-z
loop_
_atom_site_type_symbol
_atom_site_label
_atom_site_fract_x
_atom_site_fract_y
_atom_site_fract_z
Si Si1 0.659131 0.556842 0.265034
Si Si2 0.407272 0.273021 0.890651
Si Si3 0.131478 0.785166 0.015323
Si Si4 0.682141 0.229426 0.236166
Si Si5 0.950749 0.837876 0.855663
Si Si6 0.272413 0.866032 0.348823
Si Si7 0.997496 0.819674 0.487019
Si Si8 0.682641 0.488440 0.608152
O O1 0.557140 0.591614 0.182165
O O2 0.788593 0.429937 0.261619
O O3 0.390062 0.447666 0.326376
O O4 0.933362 0.773290 0.295280
O O5 0.744020 0.338143 0.940723
O O6 0.110147 0.222115 0.935515
O O7 0.265189 0.068095 0.861498
O O8 0.927706 0.736486 0.937240
O O9 0.500000 0.000000 0.000000
O O10 0.944964 0.237514 0.197243
O O11 0.372289 0.174596 0.176683
O O12 0.555647 0.060010 0.302741
O O13 0.269191 0.677542 0.363579
O O14 0.272243 0.909582 0.428597
O O15 0.971739 0.683218 0.560307
O O16 0.663243 0.646423 0.441958
O O17 0.000000 0.000000 0.500000
#
# Coordination Sequence:
#
# PCOD9004546 Si02
#       8
#     2   2   2   2   2   2   2   2
#     4  11  26  41  64  99 133 178 224 276 338 400
#     4  11  21  40  67  95 133 178 225 278 342 404
#     4  10  21  37  69  98 127 179 228 277 343 404
#     4  12  26  41  67  99 138 178 227 286 335 397
#     4  11  22  43  64  99 134 173 232 281 337 404
#     4  11  24  42  68  96 134 182 221 277 332 407
#     4  10  22  42  67 100 134 172 221 277 333 394
#     4  10  23  42  67  95 138 173 224 271 331 404
#
# _framework density 25.274806999999999
#
# number of rings (size 3 to 8) (size 9 to 14) (size 15 to 20)
#    0.000    1.250    1.250    5.625    5.250    1.500 
#    0.000    3.750    0.000    0.000    0.000    0.000 
#    0.000    0.000    0.000    0.000    0.000    0.000 
#
# Total GULP energy -89518.448204 kJ/mol
# GULP energy per Si atom -5594.903013 kJ/mol
# Density = 2.521728 g / cm^3
# Si number density = 25.274807 Si / 1000 Ang^3
#
#
#
# Elastic Constant Matrix: (Units=GPa)
#
#
# Indices 1 2 3 4 5 6 
#
# 1 82.1113 25.8572 57.3808 -0.5028 -9.6766 -14.6847
# 2 25.8572 118.8965 73.8796 -6.4481 -21.5020 -28.3292
# 3 57.3808 73.8796 211.5505 -6.5810 -20.0219 -11.1702
# 4 -0.5028 -6.4481 -6.5810 26.5740 -9.6703 13.1386
# 5 -9.6766 -21.5020 -20.0219 -9.6703 44.7771 6.4247
# 6 -14.6847 -28.3292 -11.1702 13.1386 6.4247 37.1323
#
#
#
# Elastic Compliance Matrix: (Units=1/GPa)
#
#
# Indices 1 2 3 4 5 6 
#
# 1 0.016288 0.000649 -0.004404 -0.004148 -0.000050 0.007088
# 2 0.000649 0.013567 -0.004156 -0.001081 0.003247 0.009178
# 3 -0.004404 -0.004156 0.007421 0.003446 0.001717 -0.004196
# 4 -0.004148 -0.001081 0.003446 0.055548 0.015532 -0.023771
# 5 -0.000050 0.003247 0.001717 0.015532 0.029087 -0.007555
# 6 0.007088 0.009178 -0.004196 -0.023771 -0.007555 0.045192
#
#
# Mechanical properties :
#
#
# Convention : Reuss Voigt Hill
#
# Bulk Modulus (GPa) = 46.60982 80.75483 63.68232
# Shear Modulus (GPa) = 26.30501 38.72605 32.51553
#
# Velocity S-wave (km/s) = 3.22958 3.91858 3.59064
# Velocity P-wave (km/s) = 5.69106 7.24526 6.51467
#
# Compressibility (1/GPa) = 0.02145471
#
# Stress axis : x y z
#
# Youngs Moduli (GPa) = 61.39385 73.70687 134.75054
#
# Poissons Ratio (x) = -0.04785 0.59348
# Poissons Ratio (y) = -0.03986 0.56001
# Poissons Ratio (z) = 0.27040 0.30632
#
# Static dielectric constant tensor:
#      x y z
#    x 2.077010 0.063980 0.110810 
#    y 0.063980 1.982110 0.027770 
#    z 0.110810 0.027770 2.042640 
# 
# From -- ./inp_files/547162.got.cif
#   From: 2010.05.17/outbox.cif.g08.bks.cpg/sg2_274_cif.got.tgz:547162.got - 2010.06.03 11:33:40.
