data_PCOD9004697
_publ_section_title
;
Structure prediction by ZEFSAII (Michael W. Deem and Ramdas Pophale) SiO2 
 PCOD9004697
Probable space group: P -1
;
_chemical_formula_sum "Si O2"
_cell_formula_units_Z 16
_cell_length_a 9.396138
_cell_length_b 15.384356
_cell_length_c 8.036925
_cell_angle_alpha 84.586814
_cell_angle_beta 130.253175
_cell_angle_gamma 64.466249
_cell_volume 672.642460
_symmetry_space_group_name_H-M "P -1"
_symmetry_group_IT_number 2
_symmetry_cell_setting 'triclinic'
loop_
_space_group_symop_operation_xyz
x,y,z
-x,-y,-z
loop_
_atom_site_type_symbol
_atom_site_label
_atom_site_fract_x
_atom_site_fract_y
_atom_site_fract_z
Si Si1 0.596858 0.276410 0.572933
Si Si2 0.460929 0.884826 0.610431
Si Si3 0.468127 0.559463 0.749208
Si Si4 0.009857 0.222520 0.472337
Si Si5 0.772308 0.018645 0.244297
Si Si6 0.574087 0.762115 0.230080
Si Si7 0.090891 0.142418 0.172698
Si Si8 0.272968 0.448158 0.760373
O O1 0.583534 0.203515 0.439179
O O2 0.512761 0.394583 0.415672
O O3 0.432698 0.288222 0.595127
O O4 0.867818 0.202261 0.867179
O O5 0.431418 0.917575 0.775815
O O6 0.718980 0.840541 0.743951
O O7 0.252049 0.005557 0.337912
O O8 0.396081 0.479739 0.718988
O O9 0.240163 0.674369 0.650555
O O10 0.699516 0.511263 0.049805
O O11 0.189876 0.249805 0.602380
O O12 0.991887 0.195070 0.273232
O O13 0.139408 0.105718 0.693668
O O14 0.659773 0.104132 0.989604
O O15 0.000000 0.000000 0.500000
O O16 0.577065 0.687542 0.104560
O O17 0.000000 0.500000 0.500000
#
# Coordination Sequence:
#
# PCOD9004697 Si02
#       8
#     2   2   2   2   2   2   2   2
#     4  12  24  40  65  98 131 171 217 274 333 383
#     4  10  21  38  57  94 134 177 225 262 317 388
#     4  11  26  44  74 100 126 170 228 271 328 403
#     4  11  22  44  65 100 134 178 223 267 324 398
#     4  11  23  40  65  97 138 179 223 270 321 395
#     4  12  24  42  68  96 137 178 217 273 335 387
#     4  10  22  38  61  91 137 177 216 270 321 386
#     4  11  24  49  74  96 126 171 223 277 331 391
#
# _framework density 23.786783
#
# number of rings (size 3 to 8) (size 9 to 14) (size 15 to 20)
#    0.000    1.000    2.500    5.250    1.750    2.500 
#    0.000    0.625    0.000    0.000    0.000    0.000 
#    0.000    0.000    0.000    0.000    0.000    0.000 
#
# Total GULP energy -89632.337469 kJ/mol
# GULP energy per Si atom -5602.021092 kJ/mol
# Density = 2.373264 g / cm^3
# Si number density = 23.786783 Si / 1000 Ang^3
#
#
#
# Elastic Constant Matrix: (Units=GPa)
#
#
# Indices 1 2 3 4 5 6 
#
# 1 93.2735 14.6172 36.5240 1.3617 -1.3894 29.9904
# 2 14.6172 105.2340 28.8748 -2.9840 3.9352 31.2623
# 3 36.5240 28.8748 90.7850 4.7554 0.9445 34.3617
# 4 1.3617 -2.9840 4.7554 28.8876 14.0322 -0.7537
# 5 -1.3894 3.9352 0.9445 14.0322 39.2196 -2.4570
# 6 29.9904 31.2623 34.3617 -0.7537 -2.4570 48.9071
#
#
#
# Elastic Compliance Matrix: (Units=1/GPa)
#
#
# Indices 1 2 3 4 5 6 
#
# 1 0.014116 0.001010 -0.003363 -0.000255 0.000136 -0.006936
# 2 0.001010 0.012147 -0.001591 0.002490 -0.002496 -0.007353
# 3 -0.003363 -0.001591 0.016179 -0.002982 0.000196 -0.008324
# 4 -0.000255 0.002490 -0.002982 0.042926 -0.015511 0.000542
# 5 0.000136 -0.002496 0.000196 -0.015511 0.031468 0.002716
# 6 -0.006936 -0.007353 -0.008324 0.000542 0.002716 0.035393
#
#
# Mechanical properties :
#
#
# Convention : Reuss Voigt Hill
#
# Bulk Modulus (GPa) = 28.94060 49.92494 39.43277
# Shear Modulus (GPa) = 29.13161 37.35463 33.24312
#
# Velocity S-wave (km/s) = 3.50336 3.96712 3.74243
# Velocity P-wave (km/s) = 5.34395 6.48214 5.94037
#
# Compressibility (1/GPa) = 0.03455354
#
# Stress axis : x y z
#
# Youngs Moduli (GPa) = 70.84364 82.32242 61.80935
#
# Poissons Ratio (x) = -0.08317 0.20787
# Poissons Ratio (y) = -0.07157 0.09835
# Poissons Ratio (z) = 0.23826 0.13099
#
# Static dielectric constant tensor:
#      x y z
#    x 1.924960 -0.010520 -0.030070 
#    y -0.010520 1.905860 -0.005910 
#    z -0.030070 -0.005910 1.917320 
# 
# From -- ./inp_files/206534.got.cif
#   From: 2010.05.17/outbox.cif.g08.bks.cpg/sg2_104_cif.got.tgz:206534.got - 2010.06.03 11:33:40.
