data_PCOD9004429
_publ_section_title
;
Structure prediction by ZEFSAII (Michael W. Deem and Ramdas Pophale) SiO2 
 PCOD9004429
Probable space group: P -1
;
_chemical_formula_sum "Si O2"
_cell_formula_units_Z 14
_cell_length_a 11.843734
_cell_length_b 11.825547
_cell_length_c 5.427724
_cell_angle_alpha 96.307823
_cell_angle_beta 76.434347
_cell_angle_gamma 55.552980
_cell_volume 580.845686
_symmetry_space_group_name_H-M "P -1"
_symmetry_group_IT_number 2
_symmetry_cell_setting 'triclinic'
loop_
_space_group_symop_operation_xyz
x,y,z
-x,-y,-z
loop_
_atom_site_type_symbol
_atom_site_label
_atom_site_fract_x
_atom_site_fract_y
_atom_site_fract_z
Si Si1 0.541148 0.410248 0.710860
Si Si2 0.630047 0.895292 0.105193
Si Si3 0.893464 0.895490 0.535051
Si Si4 0.594310 0.723146 0.445698
Si Si5 0.856828 0.140467 0.331429
Si Si6 0.318572 0.895574 0.934759
Si Si7 0.140833 0.342308 0.448159
O O1 0.500000 0.500000 0.500000
O O2 0.445106 0.353680 0.734999
O O3 0.713297 0.273013 0.581872
O O4 0.500000 0.500000 0.000000
O O5 0.570932 0.854724 0.345736
O O6 0.699034 0.974263 0.172827
O O7 0.757361 0.751256 0.860663
O O8 0.500000 0.000000 0.000000
O O9 0.895057 0.761121 0.444669
O O10 0.013728 0.848015 0.679635
O O11 0.921254 0.978998 0.345989
O O12 0.735228 0.029797 0.756282
O O13 0.485404 0.768791 0.745147
O O14 0.758795 0.637582 0.429995
O O15 0.781764 0.148501 0.113961
O O16 0.000000 0.500000 0.500000
#
# Coordination Sequence:
#
# PCOD9004429 Si02
#       7
#     2   2   2   2   2   2   2
#     4  11  29  47  74 107 146 193 246 306 372 445
#     4  11  23  39  71 102 138 177 242 304 364 445
#     4  10  23  42  65 101 138 186 241 296 361 438
#     4  11  25  41  72  99 140 187 244 302 368 440
#     4  10  23  41  71  96 141 185 240 299 361 435
#     4  10  21  37  67 100 134 168 241 290 363 415
#     4  11  26  43  68  99 150 185 239 297 379 433
#
# _framework density 24.102789999999999
#
# number of rings (size 3 to 8) (size 9 to 14) (size 15 to 20)
#    0.000    1.429    1.429    1.714   16.000    0.571 
#    0.000    0.000    0.000    0.000    0.000    0.000 
#    0.000    0.000    0.000    0.000    0.000    0.000 
#
# Total GULP energy -78194.987951 kJ/mol
# GULP energy per Si atom -5585.356282 kJ/mol
# Density = 2.404793 g / cm^3
# Si number density = 24.102790 Si / 1000 Ang^3
#
#
#
# Elastic Constant Matrix: (Units=GPa)
#
#
# Indices 1 2 3 4 5 6 
#
# 1 153.6636 32.1335 22.1885 19.3728 -7.4235 -6.1375
# 2 32.1335 114.2125 37.2277 17.2051 -10.9999 -17.3280
# 3 22.1885 37.2277 74.6774 24.2099 -1.3518 -8.7957
# 4 19.3728 17.2051 24.2099 45.0669 9.4392 -0.0877
# 5 -7.4235 -10.9999 -1.3518 9.4392 30.0015 4.6189
# 6 -6.1375 -17.3280 -8.7957 -0.0877 4.6189 45.8082
#
#
#
# Elastic Compliance Matrix: (Units=1/GPa)
#
#
# Indices 1 2 3 4 5 6 
#
# 1 0.007315 -0.001197 -0.000599 -0.002828 0.002205 0.000185
# 2 -0.001197 0.011713 -0.004224 -0.002550 0.004143 0.003037
# 3 -0.000599 -0.004224 0.018652 -0.008470 0.001542 0.001732
# 4 -0.002828 -0.002550 -0.008470 0.031357 -0.011614 -0.001739
# 5 0.002205 0.004143 0.001542 -0.011614 0.039403 -0.001837
# 6 0.000185 0.003037 0.001732 -0.001739 -0.001837 0.023518
#
#
# Mechanical properties :
#
#
# Convention : Reuss Voigt Hill
#
# Bulk Modulus (GPa) = 38.99950 58.40588 48.70269
# Shear Modulus (GPa) = 32.77752 40.90891 36.84321
#
# Velocity S-wave (km/s) = 3.69169 4.12426 3.91396
# Velocity P-wave (km/s) = 5.86405 6.85303 6.37774
#
# Compressibility (1/GPa) = 0.02564135
#
# Stress axis : x y z
#
# Youngs Moduli (GPa) = 136.70964 85.37542 53.61280
#
# Poissons Ratio (x) = 0.10215 0.03209
# Poissons Ratio (y) = 0.16357 0.22648
# Poissons Ratio (z) = 0.08183 0.36065
#
# Static dielectric constant tensor:
#      x y z
#    x 1.991670 -0.010130 0.024950 
#    y -0.010130 1.955930 -0.057940 
#    z 0.024950 -0.057940 1.987830 
# 
# From -- ./inp_files/71082.got.cif
#   From: 2010.05.17/outbox.cif.g08.bks.cpg/sg2_36_cif.got.tgz:71082.got - 2010.06.03 11:33:40.
