data_PCOD9004716
_publ_section_title
;
Structure prediction by ZEFSAII (Michael W. Deem and Ramdas Pophale) SiO2 
 PCOD9004716
Probable space group: P -1
;
_chemical_formula_sum "Si O2"
_cell_formula_units_Z 16
_cell_length_a 23.245782
_cell_length_b 9.240839
_cell_length_c 19.895100
_cell_angle_alpha 39.718924
_cell_angle_beta 19.158514
_cell_angle_gamma 33.264002
_cell_volume 764.213638
_symmetry_space_group_name_H-M "P -1"
_symmetry_group_IT_number 2
_symmetry_cell_setting 'triclinic'
loop_
_space_group_symop_operation_xyz
x,y,z
-x,-y,-z
loop_
_atom_site_type_symbol
_atom_site_label
_atom_site_fract_x
_atom_site_fract_y
_atom_site_fract_z
Si Si1 0.648952 0.626553 0.670697
Si Si2 0.452358 0.577317 0.601947
Si Si3 0.028882 0.669055 0.464531
Si Si4 0.220206 0.998946 0.081750
Si Si5 0.814126 0.478931 0.327786
Si Si6 0.651554 0.228527 0.708974
Si Si7 0.155125 0.176930 0.722582
Si Si8 0.291521 0.355057 0.967781
O O1 0.830108 0.511851 0.566074
O O2 0.636539 0.384861 0.737420
O O3 0.703662 0.769374 0.501868
O O4 0.436285 0.834394 0.865747
O O5 0.500000 0.500000 0.500000
O O6 0.647676 0.574913 0.419043
O O7 0.412883 0.382758 0.760451
O O8 0.248110 0.866143 0.731054
O O9 0.145321 0.801658 0.254775
O O10 0.000000 0.500000 0.500000
O O11 0.816053 0.915486 0.639624
O O12 0.044566 0.237789 0.145080
O O13 0.236981 0.139651 0.080589
O O14 0.735495 0.355336 0.516132
O O15 0.827814 0.715346 0.262043
O O16 0.436691 0.282805 0.897562
O O17 0.921660 0.366628 0.888312
#
# Coordination Sequence:
#
# PCOD9004716 Si02
#       8
#     2   2   2   2   2   2   2   2
#     4  11  22  38  60  89 117 151 196 238 281 341
#     4  11  21  35  59  89 115 149 194 240 284 338
#     4  11  23  40  61  85 116 154 190 237 293 344
#     4  10  21  40  60  84 116 152 190 238 291 344
#     4   8  19  38  57  78 114 153 187 231 287 336
#     4   9  20  37  59  84 114 149 189 235 284 339
#     4  10  21  38  58  83 118 157 192 234 281 339
#     4  10  21  40  60  84 118 155 190 235 292 343
#
# _framework density 20.936554000000001
#
# number of rings (size 3 to 8) (size 9 to 14) (size 15 to 20)
#    0.000    2.000    0.000    3.750    0.000    4.000 
#    0.000    8.750    0.000    0.000    0.000    0.000 
#    0.000    0.000    0.000    0.000    0.000    0.000 
#
# Total GULP energy -89449.565777 kJ/mol
# GULP energy per Si atom -5590.597861 kJ/mol
# Density = 2.088890 g / cm^3
# Si number density = 20.936554 Si / 1000 Ang^3
#
#
#
# Elastic Constant Matrix: (Units=GPa)
#
#
# Indices 1 2 3 4 5 6 
#
# 1 102.6884 35.9696 30.1907 18.3929 -24.7751 9.5113
# 2 35.9696 86.6612 31.0304 14.0096 -2.4543 21.3649
# 3 30.1907 31.0304 10.5765 3.1087 -47.3054 -4.5943
# 4 18.3929 14.0096 3.1087 39.3429 -11.2587 -3.2425
# 5 -24.7751 -2.4543 -47.3054 -11.2587 24.0975 -6.2498
# 6 9.5113 21.3649 -4.5943 -3.2425 -6.2498 19.4049
#
#
#
# Elastic Compliance Matrix: (Units=1/GPa)
#
#
# Indices 1 2 3 4 5 6 
#
# 1 0.014165 -0.003463 -0.002941 -0.003610 0.006113 -0.002461
# 2 -0.003463 0.013073 0.007109 -0.001822 0.008663 -0.008528
# 3 -0.002941 0.007109 -0.004555 -0.007275 -0.018430 -0.014615
# 4 -0.003610 -0.001822 -0.007275 0.027680 -0.003835 0.005443
# 5 0.006113 0.008663 -0.018430 -0.003835 0.006705 -0.015379
# 6 -0.002461 -0.008528 -0.014615 0.005443 -0.015379 0.054624
#
#
# Mechanical properties :
#
#
# Convention : Reuss Voigt Hill
#
# Bulk Modulus (GPa) = 41.50411 43.81193 42.65802
# Shear Modulus (GPa) = 42.26008 23.41808 32.83908
#
# Velocity S-wave (km/s) = 4.49763 3.34807 3.96473
# Velocity P-wave (km/s) = 6.84385 5.99312 6.43257
#
# Compressibility (1/GPa) = 0.02409400
#
# Stress axis : x y z
#
# Youngs Moduli (GPa) = 70.59545 76.49154 -219.56101
#
# Poissons Ratio (x) = 0.26489 -0.64566
# Poissons Ratio (y) = 0.24447 1.56079
# Poissons Ratio (z) = 0.20760 -0.54375
#
# Static dielectric constant tensor:
#      x y z
#    x 1.721550 -0.011250 -0.005680 
#    y -0.011250 1.751610 -0.018680 
#    z -0.005680 -0.018680 1.761010 
# 
# From -- ./inp_files/188039.got.cif
#   From: 2010.05.17/outbox.cif.g08.bks.cpg/sg2_95_cif.got.tgz:188039.got - 2010.06.03 11:33:40.
