data_PCOD9004618
_publ_section_title
;
Structure prediction by ZEFSAII (Michael W. Deem and Ramdas Pophale) SiO2 
 PCOD9004618
Probable space group: P -1
;
_chemical_formula_sum "Si O2"
_cell_formula_units_Z 15
_cell_length_a 25.875672
_cell_length_b 5.876563
_cell_length_c 9.640152
_cell_angle_alpha 37.879281
_cell_angle_beta 39.289346
_cell_angle_gamma 51.001358
_cell_volume 569.306193
_symmetry_space_group_name_H-M "P -1"
_symmetry_group_IT_number 2
_symmetry_cell_setting 'triclinic'
loop_
_space_group_symop_operation_xyz
x,y,z
-x,-y,-z
loop_
_atom_site_type_symbol
_atom_site_label
_atom_site_fract_x
_atom_site_fract_y
_atom_site_fract_z
Si Si1 0.893317 0.693547 0.829220
Si Si2 0.500000 0.000000 0.000000
Si Si3 0.326698 0.256134 0.232873
Si Si4 0.619923 0.915830 0.242702
Si Si5 0.466141 0.108251 0.305588
Si Si6 0.955489 0.505826 0.237658
Si Si7 0.771503 0.783373 0.814942
Si Si8 0.197862 0.332004 0.676237
O O1 0.847868 0.591482 0.830135
O O2 0.971984 0.427765 0.835438
O O3 0.925261 0.102238 0.536938
O O4 0.833242 0.739621 0.067381
O O5 0.593671 0.956737 0.897112
O O6 0.546128 0.083873 0.720388
O O7 0.258224 0.324132 0.223267
O O8 0.278215 0.145500 0.525691
O O9 0.365546 0.646613 0.999581
O O10 0.608669 0.811268 0.475540
O O11 0.533631 0.881507 0.363622
O O12 0.694992 0.725522 0.101506
O O13 0.500000 0.500000 0.000000
O O14 0.873471 0.738295 0.254807
O O15 0.000000 0.500000 0.000000
O O16 0.787540 0.223898 0.565772
#
# Coordination Sequence:
#
# PCOD9004618 Si02
#       8
#     2   1   2   2   2   2   2   2
#     4   9  17  33  62  89 115 156 191 232 294 351
#     4  12  24  38  62  86 114 158 208 246 296 346
#     4  11  23  41  56  87 121 156 200 250 294 348
#     4  10  23  40  61  81 114 155 198 248 301 348
#     4  11  23  41  61  83 110 150 203 255 299 350
#     4   8  15  33  63  91 114 150 195 234 285 352
#     4  10  21  38  55  86 120 152 196 243 290 348
#     4   9  20  38  60  85 121 153 191 243 292 350
#
# _framework density 26.347859
#
# number of rings (size 3 to 8) (size 9 to 14) (size 15 to 20)
#    0.000    2.133    2.667    0.000    1.867    1.600 
#    2.400    0.667    0.000   27.200    0.000    0.000 
#    0.000    0.000    0.000    0.000    0.000    0.000 
#
# Total GULP energy -83567.129225 kJ/mol
# GULP energy per Si atom -5571.141948 kJ/mol
# Density = 2.628789 g / cm^3
# Si number density = 26.347859 Si / 1000 Ang^3
#
#
#
# Elastic Constant Matrix: (Units=GPa)
#
#
# Indices 1 2 3 4 5 6 
#
# 1 147.6482 -3.4655 -3.1274 16.2956 14.2584 -0.4952
# 2 -3.4655 61.1732 30.0208 -8.9435 1.4238 -14.5970
# 3 -3.1274 30.0208 179.8214 29.8855 19.0764 -9.6335
# 4 16.2956 -8.9435 29.8855 43.4454 1.6565 -0.6422
# 5 14.2584 1.4238 19.0764 1.6565 38.9449 11.9697
# 6 -0.4952 -14.5970 -9.6335 -0.6422 11.9697 24.5347
#
#
#
# Elastic Compliance Matrix: (Units=1/GPa)
#
#
# Indices 1 2 3 4 5 6 
#
# 1 0.007589 -0.000027 0.001288 -0.003547 -0.004031 0.002517
# 2 -0.000027 0.022852 -0.003997 0.007802 -0.003481 0.013928
# 3 0.001288 -0.003997 0.008030 -0.006598 -0.004907 0.003022
# 4 -0.003547 0.007802 -0.006598 0.030422 0.002468 0.001572
# 5 -0.004031 -0.003481 -0.004907 0.002468 0.036248 -0.021699
# 6 0.002517 0.013928 0.003022 0.001572 -0.021699 0.060910
#
#
# Mechanical properties :
#
#
# Convention : Reuss Voigt Hill
#
# Bulk Modulus (GPa) = 30.30220 48.38876 39.34548
# Shear Modulus (GPa) = 27.39411 45.73267 36.56339
#
# Velocity S-wave (km/s) = 3.22795 4.17072 3.72925
# Velocity P-wave (km/s) = 5.04169 6.44969 5.78866
#
# Compressibility (1/GPa) = 0.03300090
#
# Stress axis : x y z
#
# Youngs Moduli (GPa) = 131.77364 43.75944 124.53670
#
# Poissons Ratio (x) = 0.00116 -0.16046
# Poissons Ratio (y) = 0.00350 0.49775
# Poissons Ratio (z) = -0.16979 0.17490
#
# Static dielectric constant tensor:
#      x y z
#    x 2.138590 0.039040 -0.038900 
#    y 0.039040 2.050440 -0.004660 
#    z -0.038900 -0.004660 2.013240 
# 
# From -- ./inp_files/355878.got.cif
#   From: 2010.05.17/outbox.cif.g08.bks.cpg/sg2_178_cif.got.tgz:355878.got - 2010.06.03 11:33:40.
