data_PCOD9004336
_publ_section_title
;
Structure prediction by ZEFSAII (Michael W. Deem and Ramdas Pophale) SiO2 
 PCOD9004336
Probable space group: P -1
;
_chemical_formula_sum "Si O2"
_cell_formula_units_Z 16
_cell_length_a 17.334914
_cell_length_b 10.072718
_cell_length_c 11.454469
_cell_angle_alpha 117.979603
_cell_angle_beta 36.882880
_cell_angle_gamma 141.290605
_cell_volume 683.694059
_symmetry_space_group_name_H-M "P -1"
_symmetry_group_IT_number 2
_symmetry_cell_setting 'triclinic'
loop_
_space_group_symop_operation_xyz
x,y,z
-x,-y,-z
loop_
_atom_site_type_symbol
_atom_site_label
_atom_site_fract_x
_atom_site_fract_y
_atom_site_fract_z
Si Si1 0.555573 0.288354 0.380552
Si Si2 0.722013 0.924221 0.751289
Si Si3 0.405187 0.280298 0.950136
Si Si4 0.265164 0.585215 0.546116
Si Si5 0.206106 0.201814 0.764784
Si Si6 0.577385 0.199224 0.078027
Si Si7 0.985323 0.449157 0.633512
Si Si8 0.951768 0.901662 0.333297
O O1 0.647719 0.286005 0.380329
O O2 0.368007 0.223893 0.618510
O O3 0.701778 0.546728 0.251432
O O4 0.507976 0.133170 0.268292
O O5 0.531253 0.755438 0.828816
O O6 0.843022 0.881194 0.566029
O O7 0.886362 0.196240 0.641573
O O8 0.640359 0.881836 0.961134
O O9 0.554778 0.347276 0.703319
O O10 0.500000 0.500000 0.000000
O O11 0.183974 0.132672 0.121722
O O12 0.094670 0.315182 0.682421
O O13 0.165755 0.598438 0.570193
O O14 0.160708 0.130503 0.654598
O O15 0.000000 0.000000 0.000000
O O16 0.814282 0.405308 0.872022
O O17 0.500000 0.000000 0.000000
O O18 0.000000 0.500000 0.500000
#
# Coordination Sequence:
#
# PCOD9004336 Si02
#       8
#     2   2   2   2   2   2   2   2
#     4  10  22  42  65  99 138 176 230 286 345 415
#     4  11  21  40  64  94 135 166 230 284 333 412
#     4  12  22  34  64 101 138 175 213 276 362 411
#     4  11  23  41  65  99 138 174 229 287 346 412
#     4  10  21  37  65  98 140 179 218 275 357 426
#     4  10  23  43  68  91 132 188 232 284 335 399
#     4  11  24  43  65  92 133 184 235 278 336 402
#     4  11  21  38  62 100 137 172 217 289 352 406
#
# _framework density 23.402280999999999
#
# number of rings (size 3 to 8) (size 9 to 14) (size 15 to 20)
#    0.000    1.250    3.750    2.625    0.000    2.500 
#    0.000    0.000    0.000    6.000    0.000    0.000 
#    0.000    0.000    0.000    0.000    0.000    0.000 
#
# Total GULP energy -89252.731879 kJ/mol
# GULP energy per Si atom -5578.295742 kJ/mol
# Density = 2.334902 g / cm^3
# Si number density = 23.402281 Si / 1000 Ang^3
#
#
#
# Elastic Constant Matrix: (Units=GPa)
#
#
# Indices 1 2 3 4 5 6 
#
# 1 161.1377 21.3582 30.8442 3.6858 -12.2351 35.6394
# 2 21.3582 40.9135 25.3041 0.1747 5.9299 13.0927
# 3 30.8442 25.3041 115.1465 0.9304 -7.9400 11.4239
# 4 3.6858 0.1747 0.9304 33.6377 1.2190 10.1225
# 5 -12.2351 5.9299 -7.9400 1.2190 47.8492 -9.6205
# 6 35.6394 13.0927 11.4239 10.1225 -9.6205 28.8449
#
#
#
# Elastic Compliance Matrix: (Units=1/GPa)
#
#
# Indices 1 2 3 4 5 6 
#
# 1 0.008914 -0.000212 -0.001250 0.002494 -0.000254 -0.011383
# 2 -0.000212 0.036065 -0.006717 0.006009 -0.009560 -0.018745
# 3 -0.001250 -0.006717 0.010528 -0.000670 0.002583 0.001520
# 4 0.002494 0.006009 -0.000670 0.035561 -0.005089 -0.019720
# 5 -0.000254 -0.009560 0.002583 -0.005089 0.025367 0.013877
# 6 -0.011383 -0.018745 0.001520 -0.019720 0.013877 0.068187
#
#
# Mechanical properties :
#
#
# Convention : Reuss Voigt Hill
#
# Bulk Modulus (GPa) = 25.54218 52.46785 39.00502
# Shear Modulus (GPa) = 23.36110 38.04577 30.70344
#
# Velocity S-wave (km/s) = 3.16292 4.03641 3.62606
# Velocity P-wave (km/s) = 4.92716 6.64771 5.85102
#
# Compressibility (1/GPa) = 0.03915092
#
# Stress axis : x y z
#
# Youngs Moduli (GPa) = 112.17732 27.72751 94.98382
#
# Poissons Ratio (x) = 0.00588 0.11870
# Poissons Ratio (y) = 0.02378 0.63799
# Poissons Ratio (z) = 0.14018 0.18624
#
# Static dielectric constant tensor:
#      x y z
#    x 2.019480 -0.028590 -0.001660 
#    y -0.028590 1.962710 -0.005240 
#    z -0.001660 -0.005240 1.841960 
# 
# From -- ./inp_files/465104.got.cif
#   From: 2010.05.17/outbox.cif.g08.bks.cpg/sg2_233_cif.got.tgz:465104.got - 2010.06.03 11:33:40.
