data_PCOD9004540
_publ_section_title
;
Structure prediction by ZEFSAII (Michael W. Deem and Ramdas Pophale) SiO2 
 PCOD9004540
Probable space group: P -1
;
_chemical_formula_sum "Si O2"
_cell_formula_units_Z 14
_cell_length_a 8.502973
_cell_length_b 20.643108
_cell_length_c 10.657395
_cell_angle_alpha 26.714573
_cell_angle_beta 121.721633
_cell_angle_gamma 125.899769
_cell_volume 681.197828
_symmetry_space_group_name_H-M "P -1"
_symmetry_group_IT_number 2
_symmetry_cell_setting 'triclinic'
loop_
_space_group_symop_operation_xyz
x,y,z
-x,-y,-z
loop_
_atom_site_type_symbol
_atom_site_label
_atom_site_fract_x
_atom_site_fract_y
_atom_site_fract_z
Si Si1 0.045184 0.118133 0.203339
Si Si2 0.008294 0.678302 0.710380
Si Si3 0.711405 0.815271 0.235878
Si Si4 0.230184 0.333372 0.114463
Si Si5 0.731283 0.080893 0.942183
Si Si6 0.569048 0.314782 0.433759
Si Si7 0.685555 0.002952 0.658637
O O1 0.147014 0.272791 0.050063
O O2 0.175225 0.060626 0.260566
O O3 0.000000 0.000000 0.500000
O O4 0.848157 0.116921 0.055971
O O5 0.205385 0.823793 0.547635
O O6 0.863099 0.719185 0.476279
O O7 0.917210 0.688797 0.792715
O O8 0.000000 0.500000 0.000000
O O9 0.527487 0.724319 0.401409
O O10 0.812789 0.969436 0.089227
O O11 0.646793 0.882619 0.966415
O O12 0.392081 0.257733 0.360214
O O13 0.338031 0.509177 0.844349
O O14 0.732962 0.236719 0.611025
O O15 0.500000 0.000000 0.000000
O O16 0.500000 0.000000 0.500000
#
# Coordination Sequence:
#
# PCOD9004540 Si02
#       7
#     2   2   2   2   2   2   2
#     4  12  23  42  64  95 136 171 228 279 334 401
#     4  11  24  44  70  98 137 186 227 283 339 411
#     4  10  22  44  64  97 137 175 237 269 339 417
#     4  10  22  41  67 100 139 170 230 279 342 403
#     4  10  21  37  69  93 126 177 221 277 328 403
#     4   9  21  39  67 101 127 183 217 282 337 410
#     4  12  28  42  70 103 137 187 226 289 345 404
#
# _framework density 20.552032000000001
#
# number of rings (size 3 to 8) (size 9 to 14) (size 15 to 20)
#    0.000    1.429    2.857    2.143    8.000    2.857 
#    0.000    2.857    0.000    0.000    0.000    0.000 
#    0.000    0.000    0.000    0.000    0.000    0.000 
#
# Total GULP energy -78044.683765 kJ/mol
# GULP energy per Si atom -5574.620269 kJ/mol
# Density = 2.050525 g / cm^3
# Si number density = 20.552032 Si / 1000 Ang^3
#
#
#
# Elastic Constant Matrix: (Units=GPa)
#
#
# Indices 1 2 3 4 5 6 
#
# 1 57.9643 26.9399 37.4912 11.6167 3.8931 9.4552
# 2 26.9399 114.0506 45.7476 17.0331 14.0389 15.2159
# 3 37.4912 45.7476 145.8696 10.5332 13.6518 11.6601
# 4 11.6167 17.0331 10.5332 41.9575 -3.0246 3.4313
# 5 3.8931 14.0389 13.6518 -3.0246 45.9074 3.6830
# 6 9.4552 15.2159 11.6601 3.4313 3.6830 26.5963
#
#
#
# Elastic Compliance Matrix: (Units=1/GPa)
#
#
# Indices 1 2 3 4 5 6 
#
# 1 0.022735 -0.002470 -0.004478 -0.003802 0.000249 -0.004250
# 2 -0.002470 0.011579 -0.002196 -0.003324 -0.002577 -0.003998
# 3 -0.004478 -0.002196 0.008917 -0.000151 -0.001544 -0.000828
# 4 -0.003802 -0.003324 -0.000151 0.026547 0.003177 -0.000545
# 5 0.000249 -0.002577 -0.001544 0.003177 0.023345 -0.001580
# 6 -0.004250 -0.003998 -0.000828 -0.000545 -0.001580 0.042050
#
#
# Mechanical properties :
#
#
# Convention : Reuss Voigt Hill
#
# Bulk Modulus (GPa) = 40.09046 59.80466 49.94756
# Shear Modulus (GPa) = 30.90733 36.73930 33.82332
#
# Velocity S-wave (km/s) = 3.88217 4.23262 4.06117
# Velocity P-wave (km/s) = 6.29636 7.28348 6.80783
#
# Compressibility (1/GPa) = 0.02494359
#
# Stress axis : x y z
#
# Youngs Moduli (GPa) = 43.98575 86.36061 112.15158
#
# Poissons Ratio (x) = 0.21330 0.50218
# Poissons Ratio (y) = 0.10864 0.24627
# Poissons Ratio (z) = 0.19695 0.18964
#
# Static dielectric constant tensor:
#      x y z
#    x 1.797610 0.110500 0.032840 
#    y 0.110500 1.572090 -0.018440 
#    z 0.032840 -0.018440 1.823170 
# 
# From -- ./inp_files/157336.got.cif
#   From: 2010.05.17/outbox.cif.g08.bks.cpg/sg2_79_cif.got.tgz:157336.got - 2010.06.03 11:33:40.
