data_PCOD9004906
_publ_section_title
;
Structure prediction by ZEFSAII (Michael W. Deem and Ramdas Pophale) SiO2 
 PCOD9004906
Probable space group: P -1
;
_chemical_formula_sum "Si O2"
_cell_formula_units_Z 14
_cell_length_a 5.314540
_cell_length_b 16.836398
_cell_length_c 10.255833
_cell_angle_alpha 71.692058
_cell_angle_beta 96.706268
_cell_angle_gamma 136.645951
_cell_volume 589.257340
_symmetry_space_group_name_H-M "P -1"
_symmetry_group_IT_number 2
_symmetry_cell_setting 'triclinic'
loop_
_space_group_symop_operation_xyz
x,y,z
-x,-y,-z
loop_
_atom_site_type_symbol
_atom_site_label
_atom_site_fract_x
_atom_site_fract_y
_atom_site_fract_z
Si Si1 0.794203 0.144190 0.474491
Si Si2 0.770221 0.872312 0.626155
Si Si3 0.017315 0.296400 0.638807
Si Si4 0.850143 0.510457 0.612679
Si Si5 0.750607 0.462491 0.127512
Si Si6 0.834164 0.786823 0.917505
Si Si7 0.205313 0.723892 0.087682
O O1 0.638773 0.186151 0.362641
O O2 0.181497 0.196967 0.427050
O O3 0.824287 0.175381 0.611153
O O4 0.500000 0.000000 0.500000
O O5 0.927517 0.882808 0.770295
O O6 0.000000 0.000000 0.500000
O O7 0.425951 0.379786 0.679187
O O8 0.116217 0.385542 0.483116
O O9 0.772176 0.270614 0.756620
O O10 0.000000 0.500000 0.500000
O O11 0.086714 0.545449 0.733955
O O12 0.363625 0.329716 0.128806
O O13 0.832467 0.579150 0.104950
O O14 0.000000 0.500000 0.000000
O O15 0.144461 0.805388 0.997134
O O16 0.543654 0.759132 0.015950
#
# Coordination Sequence:
#
# PCOD9004906 Si02
#       7
#     2   2   2   2   2   2   2
#     4  10  23  41  68  95 121 165 220 278 336 381
#     4  10  22  42  67  95 124 156 221 287 334 378
#     4  11  24  38  65  90 139 175 221 274 333 396
#     4  11  23  39  59  97 135 180 222 261 335 398
#     4  10  21  38  59  89 135 175 217 261 312 398
#     4  11  23  38  65  92 129 176 222 263 330 396
#     4  11  23  39  58  95 132 178 214 263 328 404
#
# _framework density 23.758721000000001
#
# number of rings (size 3 to 8) (size 9 to 14) (size 15 to 20)
#    0.000    1.429    1.429    3.857    4.000    2.286 
#    0.000    0.000    0.000   20.571    0.000    0.000 
#    0.000    0.000    0.000    0.000    0.000    0.000 
#
# Total GULP energy -78153.906501 kJ/mol
# GULP energy per Si atom -5582.421893 kJ/mol
# Density = 2.370465 g / cm^3
# Si number density = 23.758721 Si / 1000 Ang^3
#
#
#
# Elastic Constant Matrix: (Units=GPa)
#
#
# Indices 1 2 3 4 5 6 
#
# 1 141.5867 15.6126 42.5295 0.4794 6.3820 -26.1770
# 2 15.6126 79.8624 38.9581 8.9617 -10.4693 -9.0534
# 3 42.5295 38.9581 155.6428 5.3747 2.7604 -16.5781
# 4 0.4794 8.9617 5.3747 37.6313 -12.1260 -3.0465
# 5 6.3820 -10.4693 2.7604 -12.1260 48.5772 4.4015
# 6 -26.1770 -9.0534 -16.5781 -3.0465 4.4015 21.4301
#
#
#
# Elastic Compliance Matrix: (Units=1/GPa)
#
#
# Indices 1 2 3 4 5 6 
#
# 1 0.009654 -0.000290 -0.001354 0.000338 -0.002177 0.011117
# 2 -0.000290 0.015119 -0.003414 -0.002015 0.002757 0.002540
# 3 -0.001354 -0.003414 0.008050 -0.000514 -0.001448 0.003355
# 4 0.000338 -0.002015 -0.000514 0.029449 0.006723 0.001969
# 5 -0.002177 0.002757 -0.001448 0.006723 0.023820 -0.006551
# 6 0.011117 0.002540 0.003355 0.001969 -0.006551 0.065537
#
#
# Mechanical properties :
#
#
# Convention : Reuss Voigt Hill
#
# Bulk Modulus (GPa) = 44.03850 63.47693 53.75771
# Shear Modulus (GPa) = 29.53088 40.19384 34.86236
#
# Velocity S-wave (km/s) = 3.52937 4.11755 3.83476
# Velocity P-wave (km/s) = 5.93166 7.02716 6.50252
#
# Compressibility (1/GPa) = 0.02270741
#
# Stress axis : x y z
#
# Youngs Moduli (GPa) = 103.58441 66.14161 124.21702
#
# Poissons Ratio (x) = 0.01915 0.16824
# Poissons Ratio (y) = 0.03000 0.42408
# Poissons Ratio (z) = 0.14029 0.22581
#
# Static dielectric constant tensor:
#      x y z
#    x 2.080290 0.076920 -0.054260 
#    y 0.076920 2.057390 -0.145190 
#    z -0.054260 -0.145190 1.985460 
# 
# From -- ./inp_files/138959.got.cif
#   From: 2010.05.17/outbox.cif.g08.bks.cpg/sg2_70_cif.got.tgz:138959.got - 2010.06.03 11:33:40.
