data_PCOD9004102
_publ_section_title
;
Structure prediction by ZEFSAII (Michael W. Deem and Ramdas Pophale) SiO2 
 PCOD9004102
Probable space group: P -1
;
_chemical_formula_sum "Si O2"
_cell_formula_units_Z 14
_cell_length_a 9.004420
_cell_length_b 12.125933
_cell_length_c 8.824779
_cell_angle_alpha 54.850806
_cell_angle_beta 64.903456
_cell_angle_gamma 74.112275
_cell_volume 712.906174
_symmetry_space_group_name_H-M "P -1"
_symmetry_group_IT_number 2
_symmetry_cell_setting 'triclinic'
loop_
_space_group_symop_operation_xyz
x,y,z
-x,-y,-z
loop_
_atom_site_type_symbol
_atom_site_label
_atom_site_fract_x
_atom_site_fract_y
_atom_site_fract_z
Si Si1 0.159170 0.768804 0.251329
Si Si2 0.988641 0.475544 0.846511
Si Si3 0.673877 0.498232 0.511269
Si Si4 0.192132 0.313815 0.453248
Si Si5 0.322813 0.028705 0.488231
Si Si6 0.856921 0.997949 0.692440
Si Si7 0.903465 0.169560 0.091490
O O1 0.290281 0.645338 0.306566
O O2 0.979740 0.706557 0.371139
O O3 0.165468 0.859486 0.327061
O O4 0.159582 0.857718 0.029273
O O5 0.168295 0.486837 0.680999
O O6 0.863521 0.585137 0.737135
O O7 0.000000 0.500000 0.000000
O O8 0.916945 0.328718 0.972320
O O9 0.500000 0.500000 0.500000
O O10 0.686952 0.615378 0.539139
O O11 0.251642 0.168550 0.480131
O O12 0.300301 0.038770 0.308584
O O13 0.500000 0.000000 0.500000
O O14 0.222887 0.900879 0.688329
O O15 0.922300 0.895930 0.875373
O O16 0.000000 0.000000 0.500000
#
# Coordination Sequence:
#
# PCOD9004102 Si02
#       7
#     2   2   2   2   2   2   2
#     4  11  20  41  66  93 121 169 220 258 307 389
#     4  11  23  40  70  97 122 171 228 262 305 391
#     4  11  25  42  65  96 136 170 207 271 336 371
#     4  11  21  45  64  91 130 174 212 256 323 395
#     4  11  26  42  62  96 137 169 202 270 338 369
#     4  10  21  37  64  90 123 167 211 257 317 380
#     4  11  21  41  65  95 121 167 227 254 307 386
#
# _framework density 19.637926
#
# number of rings (size 3 to 8) (size 9 to 14) (size 15 to 20)
#    0.000    1.143    5.714    2.143    8.000    0.000 
#    5.143    2.143    0.000    0.000    0.000    0.000 
#    0.000    0.000    0.000    0.000    0.000    0.000 
#
# Total GULP energy -78099.366289 kJ/mol
# GULP energy per Si atom -5578.526163 kJ/mol
# Density = 1.959323 g / cm^3
# Si number density = 19.637926 Si / 1000 Ang^3
#
#
#
# Elastic Constant Matrix: (Units=GPa)
#
#
# Indices 1 2 3 4 5 6 
#
# 1 151.0077 19.2394 20.8896 2.2405 16.1193 -1.8843
# 2 19.2394 59.3336 11.6544 -0.1502 4.9452 3.5758
# 3 20.8896 11.6544 63.6221 -4.5635 16.7837 -5.1149
# 4 2.2405 -0.1502 -4.5635 26.4195 7.1570 19.2666
# 5 16.1193 4.9452 16.7837 7.1570 23.4943 0.3666
# 6 -1.8843 3.5758 -5.1149 19.2666 0.3666 30.1227
#
#
#
# Elastic Compliance Matrix: (Units=1/GPa)
#
#
# Indices 1 2 3 4 5 6 
#
# 1 0.007439 -0.001936 -0.001029 -0.000348 -0.003867 0.000790
# 2 -0.001936 0.018463 -0.002281 0.004550 -0.002227 -0.005583
# 3 -0.001029 -0.002281 0.021590 0.010357 -0.017352 -0.002541
# 4 -0.000348 0.004550 0.010357 0.089746 -0.034586 -0.055784
# 5 -0.003867 -0.002227 -0.017352 -0.034586 0.068331 0.018366
# 6 0.000790 -0.005583 -0.002541 -0.055784 0.018366 0.068934
#
#
# Mechanical properties :
#
#
# Convention : Reuss Voigt Hill
#
# Bulk Modulus (GPa) = 27.02779 41.94780 34.48779
# Shear Modulus (GPa) = 16.81634 30.81930 23.81782
#
# Velocity S-wave (km/s) = 2.92947 3.96583 3.48638
# Velocity P-wave (km/s) = 5.02348 6.50979 5.81432
#
# Compressibility (1/GPa) = 0.03699896
#
# Stress axis : x y z
#
# Youngs Moduli (GPa) = 134.42521 54.16105 46.31806
#
# Poissons Ratio (x) = 0.10487 0.04766
# Poissons Ratio (y) = 0.26028 0.10567
# Poissons Ratio (z) = 0.13833 0.12357
#
# Static dielectric constant tensor:
#      x y z
#    x 1.815520 0.144230 -0.013130 
#    y 0.144230 1.895390 -0.041090 
#    z -0.013130 -0.041090 1.747490 
# 
# From -- ./inp_files/154609.got.cif
#   From: 2010.05.17/outbox.cif.g08.bks.cpg/sg2_78_cif.got.tgz:154609.got - 2010.06.03 11:33:40.
