data_PCOD9004590
_publ_section_title
;
Structure prediction by ZEFSAII (Michael W. Deem and Ramdas Pophale) SiO2 
 PCOD9004590
Probable space group: P -1
;
_chemical_formula_sum "Si O2"
_cell_formula_units_Z 14
_cell_length_a 8.504730
_cell_length_b 14.463929
_cell_length_c 9.253934
_cell_angle_alpha 142.911001
_cell_angle_beta 88.947184
_cell_angle_gamma 72.438014
_cell_volume 584.278342
_symmetry_space_group_name_H-M "P -1"
_symmetry_group_IT_number 2
_symmetry_cell_setting 'triclinic'
loop_
_space_group_symop_operation_xyz
x,y,z
-x,-y,-z
loop_
_atom_site_type_symbol
_atom_site_label
_atom_site_fract_x
_atom_site_fract_y
_atom_site_fract_z
Si Si1 0.062582 0.270376 0.843878
Si Si2 0.747084 0.966694 0.212329
Si Si3 0.454985 0.696866 0.209366
Si Si4 0.091546 0.798600 0.808644
Si Si5 0.012982 0.338244 0.609497
Si Si6 0.395041 0.251785 0.465475
Si Si7 0.314694 0.635106 0.870009
O O1 0.241449 0.127737 0.753943
O O2 0.051571 0.235536 0.632251
O O3 0.049045 0.458761 0.101654
O O4 0.877205 0.291589 0.945045
O O5 0.723709 0.151195 0.508517
O O6 0.576241 0.054712 0.214887
O O7 0.926994 0.824258 0.946760
O O8 0.611098 0.711524 0.312665
O O9 0.500000 0.500000 0.000000
O O10 0.425321 0.704519 0.048634
O O11 0.120520 0.676203 0.518146
O O12 0.263443 0.717100 0.812918
O O13 0.000000 0.000000 0.000000
O O14 0.211937 0.259850 0.433766
O O15 0.402545 0.417850 0.601954
#
# Coordination Sequence:
#
# PCOD9004590 Si02
#       7
#     2   2   2   2   2   2   2
#     4   9  20  35  60  82 105 148 185 226 267 316
#     4   9  20  36  57  84 103 146 190 216 274 321
#     4   8  16  33  59  83 106 140 185 226 261 329
#     4  11  25  36  53  84 114 145 178 229 277 324
#     4  10  21  38  53  83 118 139 181 227 272 324
#     4   8  18  35  58  81 104 144 185 221 269 316
#     4   9  18  36  59  80 108 149 176 223 276 319
#
# _framework density 23.961181
#
# number of rings (size 3 to 8) (size 9 to 14) (size 15 to 20)
#    0.857    2.000    0.000    0.000    4.000    7.429 
#    0.000    0.714    0.000    0.000    0.000    0.000 
#    0.000    0.000    0.000    0.000    0.000    0.000 
#
# Total GULP energy -77954.458205 kJ/mol
# GULP energy per Si atom -5568.175586 kJ/mol
# Density = 2.390664 g / cm^3
# Si number density = 23.961181 Si / 1000 Ang^3
#
#
#
# Elastic Constant Matrix: (Units=GPa)
#
#
# Indices 1 2 3 4 5 6 
#
# 1 28.8582 10.9983 9.6684 -8.9427 3.8946 -10.9056
# 2 10.9983 151.2592 33.6945 -18.5529 17.3866 -31.6681
# 3 9.6684 33.6945 61.4184 -20.7073 2.6358 -10.2985
# 4 -8.9427 -18.5529 -20.7073 36.8542 -16.5572 1.6545
# 5 3.8946 17.3866 2.6358 -16.5572 27.4223 -5.8341
# 6 -10.9056 -31.6681 -10.2985 1.6545 -5.8341 30.9141
#
#
#
# Elastic Compliance Matrix: (Units=1/GPa)
#
#
# Indices 1 2 3 4 5 6 
#
# 1 0.043901 0.001618 -0.001245 0.011539 0.003390 0.016752
# 2 0.001618 0.009614 -0.003480 0.001399 -0.003326 0.008558
# 3 -0.001245 -0.003480 0.024304 0.016318 0.011027 0.005300
# 4 0.011539 0.001399 0.016318 0.053069 0.030912 0.013933
# 5 0.003390 -0.003326 0.011027 0.030912 0.057986 0.010751
# 6 0.016752 0.008558 0.005300 0.013933 0.010751 0.050073
#
#
# Mechanical properties :
#
#
# Convention : Reuss Voigt Hill
#
# Bulk Modulus (GPa) = 13.96518 38.91756 26.44137
# Shear Modulus (GPa) = 18.58536 31.51643 25.05090
#
# Velocity S-wave (km/s) = 2.78806 3.63066 3.23689
# Velocity P-wave (km/s) = 4.02558 5.81831 5.00290
#
# Compressibility (1/GPa) = 0.07160664
#
# Stress axis : x y z
#
# Youngs Moduli (GPa) = 22.77828 104.01238 41.14573
#
# Poissons Ratio (x) = -0.16831 0.05122
# Poissons Ratio (y) = -0.03686 0.14318
# Poissons Ratio (z) = 0.02836 0.36193
#
# Static dielectric constant tensor:
#      x y z
#    x 2.005120 -0.089650 -0.036040 
#    y -0.089650 2.230290 -0.120380 
#    z -0.036040 -0.120380 1.966270 
# 
# From -- ./inp_files/271223.got.cif
#   From: 2010.05.17/outbox.cif.g08.bks.cpg/sg2_136_cif.got.tgz:271223.got - 2010.06.03 11:33:40.
