data_PCOD9004940
_publ_section_title
;
Structure prediction by ZEFSAII (Michael W. Deem and Ramdas Pophale) SiO2 
 PCOD9004940
Probable space group: P -1
;
_chemical_formula_sum "Si O2"
_cell_formula_units_Z 14
_cell_length_a 5.367612
_cell_length_b 10.258037
_cell_length_c 14.627217
_cell_angle_alpha 123.442213
_cell_angle_beta 101.019902
_cell_angle_gamma 61.256551
_cell_volume 586.232636
_symmetry_space_group_name_H-M "P -1"
_symmetry_group_IT_number 2
_symmetry_cell_setting 'triclinic'
loop_
_space_group_symop_operation_xyz
x,y,z
-x,-y,-z
loop_
_atom_site_type_symbol
_atom_site_label
_atom_site_fract_x
_atom_site_fract_y
_atom_site_fract_z
Si Si1 0.313733 0.191168 0.515859
Si Si2 0.412538 0.273628 0.886455
Si Si3 0.187011 0.882125 0.607189
Si Si4 0.449058 0.950928 0.826655
Si Si5 0.535609 0.522109 0.873315
Si Si6 0.997188 0.287940 0.707905
Si Si7 0.074718 0.158379 0.040268
O O1 0.541473 0.219442 0.481054
O O2 0.054069 0.182275 0.439228
O O3 0.158333 0.307658 0.638218
O O4 0.500000 0.000000 0.500000
O O5 0.578355 0.063961 0.825963
O O6 0.581953 0.356284 0.874561
O O7 0.148303 0.309475 0.817566
O O8 0.345412 0.368147 0.015947
O O9 0.322233 0.870848 0.712363
O O10 0.038500 0.088035 0.641862
O O11 0.679149 0.841169 0.876669
O O12 0.193240 0.100618 0.924540
O O13 0.678927 0.441139 0.756242
O O14 0.203708 0.658782 0.898450
O O15 0.000000 0.000000 0.000000
#
# Coordination Sequence:
#
# PCOD9004940 Si02
#       7
#     2   2   2   2   2   2   2
#     4  10  21  38  59  94 129 166 211 265 320 378
#     4  10  23  36  57  92 128 157 205 251 326 380
#     4  10  23  37  65  90 128 167 216 262 318 377
#     4  10  24  40  62  90 123 172 211 267 307 387
#     4  11  24  35  61  91 129 167 200 265 317 390
#     4  10  22  33  58  87 130 159 205 260 326 368
#     4  11  24  41  62  86 127 167 219 252 318 387
#
# _framework density 23.881305000000001
#
# number of rings (size 3 to 8) (size 9 to 14) (size 15 to 20)
#    0.000    1.714    1.429    2.143   20.000    0.000 
#    0.000    0.000    0.000    1.714    0.000    0.000 
#    0.000    0.000    0.000    0.000    0.000    0.000 
#
# Total GULP energy -78251.813744 kJ/mol
# GULP energy per Si atom -5589.415267 kJ/mol
# Density = 2.382695 g / cm^3
# Si number density = 23.881305 Si / 1000 Ang^3
#
#
#
# Elastic Constant Matrix: (Units=GPa)
#
#
# Indices 1 2 3 4 5 6 
#
# 1 92.7605 22.7207 51.5269 2.4117 -8.1515 -21.8224
# 2 22.7207 45.0422 36.6358 -12.1456 -3.9268 -19.6385
# 3 51.5269 36.6358 120.0947 -11.1946 -28.6820 -40.5861
# 4 2.4117 -12.1456 -11.1946 26.4360 -10.7037 7.1670
# 5 -8.1515 -3.9268 -28.6820 -10.7037 53.0242 4.8770
# 6 -21.8224 -19.6385 -40.5861 7.1670 4.8770 40.8289
#
#
#
# Elastic Compliance Matrix: (Units=1/GPa)
#
#
# Indices 1 2 3 4 5 6 
#
# 1 0.015682 -0.004441 -0.006216 -0.007815 -0.003024 0.001800
# 2 -0.004441 0.035195 -0.004846 0.013059 0.001268 0.007294
# 3 -0.006216 -0.004846 0.019117 0.007318 0.009498 0.010930
# 4 -0.007815 0.013059 0.007318 0.054159 0.014832 -0.001900
# 5 -0.003024 0.001268 0.009498 0.014832 0.026373 0.002681
# 6 0.001800 0.007294 0.010930 -0.001900 0.002681 0.039841
#
#
# Mechanical properties :
#
#
# Convention : Reuss Voigt Hill
#
# Bulk Modulus (GPa) = 25.64924 53.29601 39.47262
# Shear Modulus (GPa) = 21.33382 33.85876 27.59629
#
# Velocity S-wave (km/s) = 2.99210 3.76944 3.40304
# Velocity P-wave (km/s) = 4.76450 6.42732 5.65734
#
# Compressibility (1/GPa) = 0.03898752
#
# Stress axis : x y z
#
# Youngs Moduli (GPa) = 63.76737 28.41300 52.31037
#
# Poissons Ratio (x) = 0.12618 0.32517
# Poissons Ratio (y) = 0.28318 0.25351
# Poissons Ratio (z) = 0.39639 0.13770
#
# Static dielectric constant tensor:
#      x y z
#    x 1.995750 0.011620 -0.016490 
#    y 0.011620 1.938620 -0.014550 
#    z -0.016490 -0.014550 1.929080 
# 
# From -- ./inp_files/123786.got.cif
#   From: 2010.05.17/outbox.cif.g08.bks.cpg/sg2_62_cif.got.tgz:123786.got - 2010.06.03 11:33:40.
