data_PCOD9004506
_publ_section_title
;
Structure prediction by ZEFSAII (Michael W. Deem and Ramdas Pophale) SiO2 
 PCOD9004506
Probable space group: P -1
;
_chemical_formula_sum "Si O2"
_cell_formula_units_Z 14
_cell_length_a 9.465696
_cell_length_b 6.509390
_cell_length_c 15.531189
_cell_angle_alpha 98.319377
_cell_angle_beta 61.338776
_cell_angle_gamma 127.938234
_cell_volume 646.474372
_symmetry_space_group_name_H-M "P -1"
_symmetry_group_IT_number 2
_symmetry_cell_setting 'triclinic'
loop_
_space_group_symop_operation_xyz
x,y,z
-x,-y,-z
loop_
_atom_site_type_symbol
_atom_site_label
_atom_site_fract_x
_atom_site_fract_y
_atom_site_fract_z
Si Si1 0.930400 0.072424 0.743290
Si Si2 0.284133 0.628351 0.757779
Si Si3 0.759475 0.267144 0.040482
Si Si4 0.552353 0.522077 0.585709
Si Si5 0.570350 0.778906 0.967878
Si Si6 0.921908 0.563923 0.444162
Si Si7 0.208647 0.906125 0.666869
O O1 0.097868 0.318819 0.772700
O O2 0.942561 0.215549 0.658870
O O3 0.717835 0.899088 0.847875
O O4 0.022265 0.912780 0.697615
O O5 0.337014 0.714005 0.845076
O O6 0.481366 0.677268 0.659506
O O7 0.201721 0.775441 0.750039
O O8 0.645480 0.279124 0.993412
O O9 0.000000 0.500000 0.000000
O O10 0.699043 0.982719 0.021430
O O11 0.500000 0.500000 0.500000
O O12 0.786835 0.641189 0.527975
O O13 0.409498 0.213330 0.636183
O O14 0.500000 0.500000 0.000000
O O15 0.787913 0.280451 0.414079
O O16 0.000000 0.500000 0.500000
#
# Coordination Sequence:
#
# PCOD9004506 Si02
#       7
#     2   2   2   2   2   2   2
#     4  10  22  43  63  99 140 176 235 289 344 422
#     4  10  22  40  70  98 132 183 235 288 343 420
#     4  11  25  47  73 101 140 182 240 293 356 424
#     4  11  20  40  63  96 130 176 233 275 334 419
#     4  11  27  45  73 106 144 182 233 300 358 416
#     4  11  24  39  64  97 137 183 223 282 349 408
#     4  10  21  37  68  92 133 177 229 282 344 407
#
# _framework density 21.655925
#
# number of rings (size 3 to 8) (size 9 to 14) (size 15 to 20)
#    0.000    1.429    5.714    0.429    2.000    6.857 
#    0.000    0.000    0.000    0.000    0.000    0.000 
#    0.000    0.000    0.000    0.000    0.000    0.000 
#
# Total GULP energy -78044.049087 kJ/mol
# GULP energy per Si atom -5574.574935 kJ/mol
# Density = 2.160664 g / cm^3
# Si number density = 21.655925 Si / 1000 Ang^3
#
#
#
# Elastic Constant Matrix: (Units=GPa)
#
#
# Indices 1 2 3 4 5 6 
#
# 1 96.8993 35.2273 35.5072 0.9080 -1.6709 1.4786
# 2 35.2273 114.2287 39.1929 -0.8316 1.5628 -4.1541
# 3 35.5072 39.1929 104.2988 12.5075 -11.7958 2.0708
# 4 0.9080 -0.8316 12.5075 26.2293 5.4527 2.0239
# 5 -1.6709 1.5628 -11.7958 5.4527 30.2737 4.9125
# 6 1.4786 -4.1541 2.0708 2.0239 4.9125 34.3670
#
#
#
# Elastic Compliance Matrix: (Units=1/GPa)
#
#
# Indices 1 2 3 4 5 6 
#
# 1 0.012559 -0.002680 -0.003491 0.001332 -0.000665 -0.000637
# 2 -0.002680 0.011082 -0.003982 0.002836 -0.003102 0.001971
# 3 -0.003491 -0.003982 0.014098 -0.008101 0.007247 -0.001740
# 4 0.001332 0.002836 -0.008101 0.044375 -0.011183 -0.000241
# 5 -0.000665 -0.003102 0.007247 -0.011183 0.038916 -0.005687
# 6 -0.000637 0.001971 -0.001740 -0.000241 -0.005687 0.030295
#
#
# Mechanical properties :
#
#
# Convention : Reuss Voigt Hill
#
# Bulk Modulus (GPa) = 57.36011 59.47573 58.41792
# Shear Modulus (GPa) = 28.17811 31.87397 30.02604
#
# Velocity S-wave (km/s) = 3.61109 3.84061 3.72762
# Velocity P-wave (km/s) = 6.62806 6.86955 6.74988
#
# Compressibility (1/GPa) = 0.01743372
#
# Stress axis : x y z
#
# Youngs Moduli (GPa) = 79.62297 90.23787 70.93075
#
# Poissons Ratio (x) = 0.24181 0.24762
# Poissons Ratio (y) = 0.21337 0.28245
# Poissons Ratio (z) = 0.27796 0.35933
#
# Static dielectric constant tensor:
#      x y z
#    x 1.524450 0.453650 0.057110 
#    y 0.453650 1.084330 -0.119340 
#    z 0.057110 -0.119340 1.838000 
# 
# From -- ./inp_files/487080.got.cif
#   From: 2010.05.17/outbox.cif.g08.bks.cpg/sg2_244_cif.got.tgz:487080.got - 2010.06.03 11:33:40.
