data_PCOD9004201
_publ_section_title
;
Structure prediction by ZEFSAII (Michael W. Deem and Ramdas Pophale) SiO2 
 PCOD9004201
Probable space group: P -1
;
_chemical_formula_sum "Si O2"
_cell_formula_units_Z 16
_cell_length_a 11.440356
_cell_length_b 6.601637
_cell_length_c 13.899399
_cell_angle_alpha 38.808149
_cell_angle_beta 115.121026
_cell_angle_gamma 118.522607
_cell_volume 575.419266
_symmetry_space_group_name_H-M "P -1"
_symmetry_group_IT_number 2
_symmetry_cell_setting 'triclinic'
loop_
_space_group_symop_operation_xyz
x,y,z
-x,-y,-z
loop_
_atom_site_type_symbol
_atom_site_label
_atom_site_fract_x
_atom_site_fract_y
_atom_site_fract_z
Si Si1 0.857104 0.630431 0.384817
Si Si2 0.658785 0.691308 0.717544
Si Si3 0.958548 0.624902 0.836803
Si Si4 0.634113 0.770938 0.476528
Si Si5 0.632670 0.575287 0.953786
Si Si6 0.737122 0.504668 0.194216
Si Si7 0.606388 0.821053 0.188326
Si Si8 0.084198 0.392645 0.381063
O O1 0.846861 0.509465 0.313984
O O2 0.706216 0.659002 0.343876
O O3 0.905181 0.464359 0.557169
O O4 0.941489 0.010973 0.272713
O O5 0.807609 0.652736 0.785557
O O6 0.635427 0.904917 0.538809
O O7 0.632623 0.798030 0.777317
O O8 0.547000 0.347794 0.782164
O O9 0.960233 0.467642 0.787202
O O10 0.000000 0.500000 0.000000
O O11 0.500000 0.500000 0.500000
O O12 0.665065 0.114125 0.300048
O O13 0.762456 0.620952 0.577900
O O14 0.358176 0.302814 0.857102
O O15 0.757133 0.676401 0.033651
O O16 0.641892 0.215657 0.051939
O O17 0.500000 0.500000 0.000000
O O18 0.000000 0.000000 0.500000
#
# Coordination Sequence:
#
# PCOD9004201 Si02
#       8
#     2   2   2   2   2   2   2   2
#     4   9  19  42  65  93 129 174 224 263 331 402
#     4  11  23  40  63  99 134 165 223 284 332 385
#     4  10  21  37  64  97 131 172 218 279 336 384
#     4  11  23  42  69 101 135 170 220 287 344 385
#     4  12  22  39  64  98 132 182 222 264 327 409
#     4  10  24  41  69  94 135 176 226 264 338 403
#     4  10  22  41  69  95 134 173 223 272 330 402
#     4   9  19  39  66  94 130 176 223 264 333 405
#
# _framework density 27.805814000000002
#
# number of rings (size 3 to 8) (size 9 to 14) (size 15 to 20)
#    0.750    1.000    1.250    3.375    0.000    1.500 
#    0.000    8.750    0.000    3.000    0.000    0.000 
#    0.000    0.000    0.000    0.000    0.000    0.000 
#
# Total GULP energy -89394.186508 kJ/mol
# GULP energy per Si atom -5587.136657 kJ/mol
# Density = 2.774253 g / cm^3
# Si number density = 27.805814 Si / 1000 Ang^3
#
#
#
# Elastic Constant Matrix: (Units=GPa)
#
#
# Indices 1 2 3 4 5 6 
#
# 1 53.5254 42.3831 25.2637 23.0406 -7.5979 14.4106
# 2 42.3831 137.0268 60.1679 30.4824 -0.9281 17.8476
# 3 25.2637 60.1679 189.6051 72.2942 -25.9436 -8.0017
# 4 23.0406 30.4824 72.2942 67.7398 -11.2849 -0.6429
# 5 -7.5979 -0.9281 -25.9436 -11.2849 48.7479 17.8696
# 6 14.4106 17.8476 -8.0017 -0.6429 17.8696 65.6144
#
#
#
# Elastic Compliance Matrix: (Units=1/GPa)
#
#
# Indices 1 2 3 4 5 6 
#
# 1 0.029411 -0.007414 0.001985 -0.007870 0.005827 -0.005865
# 2 -0.007414 0.010937 -0.002967 0.000421 -0.002004 -0.001159
# 3 0.001985 -0.002967 0.010042 -0.009525 0.003157 0.000643
# 4 -0.007870 0.000421 -0.009525 0.027383 -0.000237 0.000785
# 5 0.005827 -0.002004 0.003157 -0.000237 0.025704 -0.007352
# 6 -0.005865 -0.001159 0.000643 0.000785 -0.007352 0.018932
#
#
# Mechanical properties :
#
#
# Convention : Reuss Voigt Hill
#
# Bulk Modulus (GPa) = 29.76410 70.64299 50.20354
# Shear Modulus (GPa) = 33.24439 53.24324 43.24382
#
# Velocity S-wave (km/s) = 3.46148 4.38062 3.94789
# Velocity P-wave (km/s) = 5.16753 7.14475 6.23501
#
# Compressibility (1/GPa) = 0.03359753
#
# Stress axis : x y z
#
# Youngs Moduli (GPa) = 34.00126 91.42997 99.58168
#
# Poissons Ratio (x) = 0.67788 -0.19763
# Poissons Ratio (y) = 0.25209 0.29542
# Poissons Ratio (z) = -0.06748 0.27124
#
# Static dielectric constant tensor:
#      x y z
#    x 2.362830 -0.012060 -0.104010 
#    y -0.012060 2.172740 0.148370 
#    z -0.104010 0.148370 2.242510 
# 
# From -- ./inp_files/469291.got.cif
#   From: 2010.05.17/outbox.cif.g08.bks.cpg/sg2_235_cif.got.tgz:469291.got - 2010.06.03 11:33:40.
