data_PCOD9004192
_publ_section_title
;
Structure prediction by ZEFSAII (Michael W. Deem and Ramdas Pophale) SiO2 
 PCOD9004192
Probable space group: P -1
;
_chemical_formula_sum "Si O2"
_cell_formula_units_Z 12
_cell_length_a 9.023767
_cell_length_b 14.484965
_cell_length_c 14.284161
_cell_angle_alpha 142.498920
_cell_angle_beta 72.677610
_cell_angle_gamma 137.749650
_cell_volume 540.285356
_symmetry_space_group_name_H-M "P -1"
_symmetry_group_IT_number 2
_symmetry_cell_setting 'triclinic'
loop_
_space_group_symop_operation_xyz
x,y,z
-x,-y,-z
loop_
_atom_site_type_symbol
_atom_site_label
_atom_site_fract_x
_atom_site_fract_y
_atom_site_fract_z
Si Si1 0.424719 0.070994 0.141227
Si Si2 0.266796 0.170821 0.953340
Si Si3 0.753098 0.418925 0.948007
Si Si4 0.683070 0.447717 0.782817
Si Si5 0.431873 0.379563 0.302357
Si Si6 0.339812 0.103690 0.378908
O O1 0.574191 0.354652 0.306351
O O2 0.473112 0.108288 0.274458
O O3 0.052557 0.766389 0.953758
O O4 0.500000 0.000000 0.000000
O O5 0.455150 0.195721 0.889142
O O6 0.387977 0.433071 0.097935
O O7 0.351777 0.250872 0.110867
O O8 0.891383 0.849771 0.769030
O O9 0.635975 0.311666 0.776503
O O10 0.980378 0.757629 0.180401
O O11 0.000000 0.500000 0.000000
O O12 0.513803 0.241807 0.556570
O O13 0.624331 0.694796 0.502980
#
# Coordination Sequence:
#
# PCOD9004192 Si02
#       6
#     2   2   2   2   2   2
#     4  10  21  37  64  96 133 159 199 270 320 359
#     4   9  19  39  66  90 128 165 207 256 316 371
#     4  11  24  40  64  92 131 165 206 268 319 359
#     4   9  21  41  60  90 124 167 210 254 310 379
#     4   9  19  38  66  95 121 167 214 253 306 379
#     4  10  22  42  63  91 125 166 219 247 309 388
#
# _framework density 22.210484999999998
#
# number of rings (size 3 to 8) (size 9 to 14) (size 15 to 20)
#    0.000    2.333    0.000    2.000    4.667    4.000 
#    3.000    1.667    0.000    0.000    0.000    0.000 
#    0.000    0.000    0.000    0.000    0.000    0.000 
#
# Total GULP energy -66932.113772 kJ/mol
# GULP energy per Si atom -5577.676148 kJ/mol
# Density = 2.215993 g / cm^3
# Si number density = 22.210485 Si / 1000 Ang^3
#
#
#
# Elastic Constant Matrix: (Units=GPa)
#
#
# Indices 1 2 3 4 5 6 
#
# 1 104.5825 74.4234 25.9472 -28.3641 3.7807 -5.2292
# 2 74.4234 109.7570 34.8597 -10.8971 -13.3959 4.8907
# 3 25.9472 34.8597 98.3732 -22.5353 5.2178 -14.8678
# 4 -28.3641 -10.8971 -22.5353 30.5948 -12.0505 3.3861
# 5 3.7807 -13.3959 5.2178 -12.0505 29.3425 -14.8809
# 6 -5.2292 4.8907 -14.8678 3.3861 -14.8809 35.2660
#
#
#
# Elastic Compliance Matrix: (Units=1/GPa)
#
#
# Indices 1 2 3 4 5 6 
#
# 1 0.028114 -0.018966 0.005461 0.022315 -0.000711 0.006659
# 2 -0.018966 0.024432 -0.007205 -0.010444 0.008160 -0.004792
# 3 0.005461 -0.007205 0.015698 0.014488 0.003478 0.008504
# 4 0.022315 -0.010444 0.014488 0.068769 0.025680 0.015098
# 5 -0.000711 0.008160 0.003478 0.025680 0.059403 0.022829
# 6 0.006659 -0.004792 0.008504 0.015098 0.022829 0.041776
#
#
# Mechanical properties :
#
#
# Convention : Reuss Voigt Hill
#
# Bulk Modulus (GPa) = 37.27844 64.79700 51.03772
# Shear Modulus (GPa) = 17.32780 30.87282 24.10031
#
# Velocity S-wave (km/s) = 2.79617 3.73233 3.29764
# Velocity P-wave (km/s) = 5.21971 6.91456 6.12603
#
# Compressibility (1/GPa) = 0.02682516
#
# Stress axis : x y z
#
# Youngs Moduli (GPa) = 35.56885 40.92919 63.70370
#
# Poissons Ratio (x) = 0.77627 -0.34791
# Poissons Ratio (y) = 0.67461 0.45898
# Poissons Ratio (z) = -0.19426 0.29489
#
# Static dielectric constant tensor:
#      x y z
#    x 1.895590 -0.036960 -0.025690 
#    y -0.036960 1.820370 -0.026660 
#    z -0.025690 -0.026660 1.845160 
# 
# From -- ./inp_files/561809.got.cif
#   From: 2010.05.17/outbox.cif.g08.bks.cpg/sg2_281_cif.got.tgz:561809.got - 2010.06.03 11:33:40.
