data_PCOD9004965
_publ_section_title
;
Structure prediction by ZEFSAII (Michael W. Deem and Ramdas Pophale) SiO2 
 PCOD9004965
Probable space group: P -1
;
_chemical_formula_sum "Si O2"
_cell_formula_units_Z 14
_cell_length_a 14.754385
_cell_length_b 5.877048
_cell_length_c 7.385516
_cell_angle_alpha 67.645810
_cell_angle_beta 66.278263
_cell_angle_gamma 99.965761
_cell_volume 500.425352
_symmetry_space_group_name_H-M "P -1"
_symmetry_group_IT_number 2
_symmetry_cell_setting 'triclinic'
loop_
_space_group_symop_operation_xyz
x,y,z
-x,-y,-z
loop_
_atom_site_type_symbol
_atom_site_label
_atom_site_fract_x
_atom_site_fract_y
_atom_site_fract_z
Si Si1 0.161888 0.647317 0.588270
Si Si2 0.482537 0.866432 0.276008
Si Si3 0.153085 0.179564 0.271383
Si Si4 0.713338 0.302675 0.870092
Si Si5 0.576510 0.719578 0.594370
Si Si6 0.194747 0.915966 0.832719
Si Si7 0.976154 0.874104 0.262686
O O1 0.247621 0.614236 0.391078
O O2 0.191590 0.688839 0.760338
O O3 0.047610 0.406574 0.730350
O O4 0.161613 0.921912 0.431203
O O5 0.495369 0.751873 0.498761
O O6 0.451727 0.595302 0.261231
O O7 0.598168 0.070162 0.051130
O O8 0.424082 0.073728 0.307521
O O9 0.076011 0.234431 0.464853
O O10 0.266487 0.425277 0.118394
O O11 0.088371 0.099917 0.162246
O O12 0.792716 0.191368 0.947948
O O13 0.694234 0.841460 0.373359
O O14 0.097307 0.000661 0.825726
#
# Coordination Sequence:
#
# PCOD9004965 Si02
#       7
#     2   2   2   2   2   2   2
#     4  10  21  38  60  84 122 160 200 248 307 366
#     4   9  19  36  60  89 123 163 206 254 313 374
#     4   9  19  37  60  86 120 158 200 248 306 368
#     4  10  22  38  61  89 120 156 202 255 306 366
#     4   9  19  36  60  89 123 163 206 254 313 374
#     4  10  22  38  61  89 120 156 202 255 306 366
#     4   9  19  37  60  86 120 158 200 248 306 368
#
# _framework density 27.976201
#
# number of rings (size 3 to 8) (size 9 to 14) (size 15 to 20)
#    0.000    2.571    0.000    0.429    4.000    2.857 
#    0.000    2.857    0.000    0.000    0.000    0.000 
#    0.000    0.000    0.000    0.000    0.000    0.000 
#
# Total GULP energy -78278.082903 kJ/mol
# GULP energy per Si atom -5591.291636 kJ/mol
# Density = 2.791253 g / cm^3
# Si number density = 27.976201 Si / 1000 Ang^3
#
#
#
# Elastic Constant Matrix: (Units=GPa)
#
#
# Indices 1 2 3 4 5 6 
#
# 1 88.5846 50.7832 20.2745 -15.7768 7.9441 -15.3248
# 2 50.7832 188.3918 64.5600 -43.1653 -2.4892 15.6678
# 3 20.2745 64.5600 106.2300 -20.3393 7.7372 0.7072
# 4 -15.7768 -43.1653 -20.3393 69.0793 16.0129 1.7744
# 5 7.9441 -2.4892 7.7372 16.0129 41.0115 -7.7112
# 6 -15.3248 15.6678 0.7072 1.7744 -7.7112 41.2493
#
#
#
# Elastic Compliance Matrix: (Units=1/GPa)
#
#
# Indices 1 2 3 4 5 6 
#
# 1 0.015515 -0.004606 0.000180 0.001101 -0.002431 0.007009
# 2 -0.004606 0.009197 -0.003940 0.003735 -0.000270 -0.005348
# 3 0.000180 -0.003940 0.012382 0.001962 -0.003252 0.000659
# 4 0.001101 0.003735 0.001962 0.019754 -0.008732 -0.003525
# 5 -0.002431 -0.000270 -0.003252 -0.008732 0.029840 0.005209
# 6 0.007009 -0.005348 0.000659 -0.003525 0.005209 0.029992
#
#
# Mechanical properties :
#
#
# Convention : Reuss Voigt Hill
#
# Bulk Modulus (GPa) = 49.11503 72.71574 60.91539
# Shear Modulus (GPa) = 35.66338 46.77395 41.21866
#
# Velocity S-wave (km/s) = 3.57427 4.09335 3.84259
# Velocity P-wave (km/s) = 5.88456 6.95623 6.44271
#
# Compressibility (1/GPa) = 0.02036037
#
# Stress axis : x y z
#
# Youngs Moduli (GPa) = 64.45401 108.73239 80.76464
#
# Poissons Ratio (x) = 0.50087 -0.01451
# Poissons Ratio (y) = 0.29691 0.31820
# Poissons Ratio (z) = -0.01158 0.42838
#
# Static dielectric constant tensor:
#      x y z
#    x 2.261880 -0.014060 -0.078180 
#    y -0.014060 2.292320 0.080220 
#    z -0.078180 0.080220 2.195360 
# 
# From -- ./inp_files/322311.got.cif
#   From: 2010.05.17/outbox.cif.g08.bks.cpg/sg2_162_cif.got.tgz:322311.got - 2010.06.03 11:33:40.
