data_PCOD9004137
_publ_section_title
;
Structure prediction by ZEFSAII (Michael W. Deem and Ramdas Pophale) SiO2 
 PCOD9004137
Probable space group: P -1
;
_chemical_formula_sum "Si O2"
_cell_formula_units_Z 16
_cell_length_a 5.621176
_cell_length_b 20.316881
_cell_length_c 11.846594
_cell_angle_alpha 143.537916
_cell_angle_beta 70.720216
_cell_angle_gamma 118.873514
_cell_volume 699.673703
_symmetry_space_group_name_H-M "P -1"
_symmetry_group_IT_number 2
_symmetry_cell_setting 'triclinic'
loop_
_space_group_symop_operation_xyz
x,y,z
-x,-y,-z
loop_
_atom_site_type_symbol
_atom_site_label
_atom_site_fract_x
_atom_site_fract_y
_atom_site_fract_z
Si Si1 0.296563 0.513781 0.332808
Si Si2 0.450214 0.310236 0.656320
Si Si3 0.483212 0.296689 0.019164
Si Si4 0.740426 0.325955 0.249804
Si Si5 0.614681 0.990826 0.094815
Si Si6 0.939366 0.125280 0.922915
Si Si7 0.895343 0.356488 0.840240
Si Si8 0.136732 0.109514 0.252645
O O1 0.362512 0.572387 0.281337
O O2 0.446957 0.422765 0.195890
O O3 0.381641 0.619370 0.557685
O O4 0.980963 0.436861 0.303389
O O5 0.648427 0.298664 0.707292
O O6 0.338010 0.202090 0.434283
O O7 0.167200 0.325953 0.754822
O O8 0.535358 0.270514 0.103201
O O9 0.189437 0.190795 0.890659
O O10 0.735937 0.312088 0.921426
O O11 0.886660 0.236843 0.144708
O O12 0.734909 0.895730 0.896695
O O13 0.849203 0.114040 0.268106
O O14 0.375905 0.948116 0.164692
O O15 0.500000 0.000000 0.000000
O O16 0.978209 0.020442 0.844215
O O17 0.000000 0.500000 0.000000
#
# Coordination Sequence:
#
# PCOD9004137 Si02
#       8
#     2   2   2   2   2   2   2   2
#     4  10  22  39  64 100 133 170 223 289 348 418
#     4  12  27  45  74 103 137 180 239 292 340 411
#     4  11  23  41  67  93 132 178 230 282 348 409
#     4  10  21  39  64  99 135 174 218 280 355 420
#     4   9  19  37  65  91 138 177 219 278 339 420
#     4  10  21  37  64  92 133 173 221 268 349 411
#     4  12  27  48  74  99 136 187 239 290 347 401
#     4  10  22  41  63 101 135 181 228 280 345 415
#
# _framework density 22.867802000000001
#
# number of rings (size 3 to 8) (size 9 to 14) (size 15 to 20)
#    0.000    1.500    1.250    3.000    7.000    2.000 
#    2.250    1.250    0.000    0.000    0.000    0.000 
#    0.000    0.000    0.000    0.000    0.000    0.000 
#
# Total GULP energy -89086.460818 kJ/mol
# GULP energy per Si atom -5567.903801 kJ/mol
# Density = 2.281575 g / cm^3
# Si number density = 22.867802 Si / 1000 Ang^3
#
#
#
# Elastic Constant Matrix: (Units=GPa)
#
#
# Indices 1 2 3 4 5 6 
#
# 1 72.8282 8.7750 23.6882 -8.5410 15.1934 16.0865
# 2 8.7750 108.0421 16.2127 -4.3048 -11.6528 14.3753
# 3 23.6882 16.2127 51.6809 -0.4534 12.1573 -0.2810
# 4 -8.5410 -4.3048 -0.4534 32.9551 7.2967 -5.9861
# 5 15.1934 -11.6528 12.1573 7.2967 38.0467 -2.6768
# 6 16.0865 14.3753 -0.2810 -5.9861 -2.6768 45.8427
#
#
#
# Elastic Compliance Matrix: (Units=1/GPa)
#
#
# Indices 1 2 3 4 5 6 
#
# 1 0.019688 -0.000175 -0.007294 0.005345 -0.007075 -0.006614
# 2 -0.000175 0.010841 -0.004432 -0.000287 0.004641 -0.003132
# 3 -0.007294 -0.004432 0.025598 -0.000032 -0.006356 0.003731
# 4 0.005345 -0.000287 -0.000032 0.033981 -0.008578 0.002151
# 5 -0.007075 0.004641 -0.006356 -0.008578 0.034338 0.001874
# 6 -0.006614 -0.003132 0.003731 0.002151 0.001874 0.025530
#
#
# Mechanical properties :
#
#
# Convention : Reuss Voigt Hill
#
# Bulk Modulus (GPa) = 30.93518 36.65587 33.79553
# Shear Modulus (GPa) = 27.09250 35.62724 31.35987
#
# Velocity S-wave (km/s) = 3.44575 3.95139 3.70720
# Velocity P-wave (km/s) = 5.42108 6.07307 5.75631
#
# Compressibility (1/GPa) = 0.03232566
#
# Stress axis : x y z
#
# Youngs Moduli (GPa) = 50.79179 92.24501 39.06525
#
# Poissons Ratio (x) = 0.01611 0.28495
# Poissons Ratio (y) = 0.00887 0.17314
# Poissons Ratio (z) = 0.37048 0.40883
#
# Static dielectric constant tensor:
#      x y z
#    x 2.153930 0.034970 -0.035420 
#    y 0.034970 1.899390 0.044560 
#    z -0.035420 0.044560 1.923580 
# 
# From -- ./inp_files/370449.got.cif
#   From: 2010.05.17/outbox.cif.g08.bks.cpg/sg2_186_cif.got.tgz:370449.got - 2010.06.03 11:33:40.
