data_PCOD9004914
_publ_section_title
;
Structure prediction by ZEFSAII (Michael W. Deem and Ramdas Pophale) SiO2 
 PCOD9004914
Probable space group: P -1
;
_chemical_formula_sum "Si O2"
_cell_formula_units_Z 16
_cell_length_a 19.558153
_cell_length_b 22.336349
_cell_length_c 9.990980
_cell_angle_alpha 144.451693
_cell_angle_beta 33.499322
_cell_angle_gamma 162.182175
_cell_volume 732.073498
_symmetry_space_group_name_H-M "P -1"
_symmetry_group_IT_number 2
_symmetry_cell_setting 'triclinic'
loop_
_space_group_symop_operation_xyz
x,y,z
-x,-y,-z
loop_
_atom_site_type_symbol
_atom_site_label
_atom_site_fract_x
_atom_site_fract_y
_atom_site_fract_z
Si Si1 0.752173 0.921896 0.132313
Si Si2 0.615707 0.350158 0.412425
Si Si3 0.289137 0.807419 0.093010
Si Si4 0.757348 0.536110 0.789355
Si Si5 0.284287 0.870126 0.517097
Si Si6 0.377576 0.360970 0.651477
Si Si7 0.131713 0.910253 0.488948
Si Si8 0.820878 0.794900 0.589504
O O1 0.486733 0.688844 0.169019
O O2 0.711097 0.006397 0.299394
O O3 0.926887 0.065049 0.236210
O O4 0.857672 0.924229 0.849671
O O5 0.737312 0.507090 0.610601
O O6 0.497689 0.344585 0.488651
O O7 0.399097 0.138226 0.453626
O O8 0.755044 0.345220 0.134590
O O9 0.331908 0.848278 0.257100
O O10 0.102292 0.767278 0.296095
O O11 0.500000 0.000000 0.000000
O O12 0.012065 0.663653 0.640347
O O13 0.740457 0.642414 0.058379
O O14 0.500000 0.000000 0.500000
O O15 0.585933 0.575144 0.632797
O O16 0.208022 0.214079 0.537062
O O17 0.020446 0.861006 0.439750
#
# Coordination Sequence:
#
# PCOD9004914 Si02
#       8
#     2   2   2   2   2   2   2   2
#     4   9  21  41  63  89 131 165 208 262 322 373
#     4  10  21  38  64  89 121 166 208 261 310 373
#     4   9  21  42  63  92 129 161 214 262 314 376
#     4  10  23  43  61  92 130 163 215 264 316 378
#     4  11  25  41  67  98 125 170 215 262 317 392
#     4  10  23  38  59  93 130 161 208 265 318 374
#     4   9  19  37  62  89 119 169 205 258 311 375
#     4  10  21  38  59  90 127 168 208 256 325 373
#
# _framework density 21.855729
#
# number of rings (size 3 to 8) (size 9 to 14) (size 15 to 20)
#    0.000    2.250    0.000    1.500    7.000    3.500 
#    0.000    0.000    0.000    0.000    0.000    0.000 
#    0.000    0.000    0.000    0.000    0.000    0.000 
#
# Total GULP energy -89091.722476 kJ/mol
# GULP energy per Si atom -5568.232655 kJ/mol
# Density = 2.180598 g / cm^3
# Si number density = 21.855729 Si / 1000 Ang^3
#
#
#
# Elastic Constant Matrix: (Units=GPa)
#
#
# Indices 1 2 3 4 5 6 
#
# 1 107.1116 0.3057 69.1291 16.8908 -6.9959 21.3976
# 2 0.3057 74.0076 21.0437 7.8356 -1.3739 -3.8038
# 3 69.1291 21.0437 162.1549 19.4186 -5.3477 -1.4741
# 4 16.8908 7.8356 19.4186 32.7878 -4.1251 -4.5781
# 5 -6.9959 -1.3739 -5.3477 -4.1251 17.0961 2.9596
# 6 21.3976 -3.8038 -1.4741 -4.5781 2.9596 36.8656
#
#
#
# Elastic Compliance Matrix: (Units=1/GPa)
#
#
# Indices 1 2 3 4 5 6 
#
# 1 0.017371 0.002057 -0.006840 -0.006274 0.005589 -0.011371
# 2 0.002057 0.014504 -0.002374 -0.003080 0.000560 -0.000220
# 3 -0.006840 -0.002374 0.009529 -0.001110 -0.000978 0.004047
# 4 -0.006274 -0.003080 -0.001110 0.036724 0.004403 0.007486
# 5 0.005589 0.000560 -0.000978 0.004403 0.062920 -0.007730
# 6 -0.011371 -0.000220 0.004047 0.007486 -0.007730 0.035415
#
#
# Mechanical properties :
#
#
# Convention : Reuss Voigt Hill
#
# Bulk Modulus (GPa) = 36.91555 58.24791 47.58173
# Shear Modulus (GPa) = 25.02433 34.20294 29.61363
#
# Velocity S-wave (km/s) = 3.38742 3.96023 3.68497
# Velocity P-wave (km/s) = 5.67686 6.90073 6.31850
#
# Compressibility (1/GPa) = 0.02708886
#
# Stress axis : x y z
#
# Youngs Moduli (GPa) = 57.56798 68.94749 104.94800
#
# Poissons Ratio (x) = -0.14181 0.71785
# Poissons Ratio (y) = -0.11840 0.24912
# Poissons Ratio (z) = 0.39377 0.16366
#
# Static dielectric constant tensor:
#      x y z
#    x 1.804290 0.024710 0.025320 
#    y 0.024710 1.935490 -0.043700 
#    z 0.025320 -0.043700 1.868440 
# 
# From -- ./inp_files/338176.got.cif
#   From: 2010.05.17/outbox.cif.g08.bks.cpg/sg2_170_cif.got.tgz:338176.got - 2010.06.03 11:33:40.
