data_PCOD9004314
_publ_section_title
;
Structure prediction by ZEFSAII (Michael W. Deem and Ramdas Pophale) SiO2 
 PCOD9004314
Probable space group: P -1
;
_chemical_formula_sum "Si O2"
_cell_formula_units_Z 16
_cell_length_a 15.835364
_cell_length_b 11.648244
_cell_length_c 19.897695
_cell_angle_alpha 34.032803
_cell_angle_beta 159.958083
_cell_angle_gamma 146.175268
_cell_volume 677.370372
_symmetry_space_group_name_H-M "P -1"
_symmetry_group_IT_number 2
_symmetry_cell_setting 'triclinic'
loop_
_space_group_symop_operation_xyz
x,y,z
-x,-y,-z
loop_
_atom_site_type_symbol
_atom_site_label
_atom_site_fract_x
_atom_site_fract_y
_atom_site_fract_z
Si Si1 0.032460 0.531354 0.228577
Si Si2 0.050117 0.968196 0.249113
Si Si3 0.460030 0.813453 0.332083
Si Si4 0.582836 0.629727 0.641894
Si Si5 0.882630 0.203672 0.478958
Si Si6 0.349410 0.791203 0.111461
Si Si7 0.208914 0.408751 0.850318
Si Si8 0.852326 0.047783 0.299977
O O1 0.824042 0.575000 0.102193
O O2 0.925853 0.302641 0.225549
O O3 0.171671 0.714049 0.191239
O O4 0.276331 0.534003 0.458661
O O5 0.924389 0.827443 0.160971
O O6 0.073813 0.805785 0.404834
O O7 0.313888 0.151514 0.346351
O O8 0.868642 0.104023 0.078956
O O9 0.623377 0.705791 0.556885
O O10 0.484144 0.765171 0.296132
O O11 0.588548 0.063163 0.315740
O O12 0.716273 0.448079 0.849567
O O13 0.923744 0.428143 0.365490
O O14 0.051487 0.070928 0.631167
O O15 0.554138 0.947617 0.141566
O O16 0.500000 0.500000 0.000000
O O17 0.000000 0.000000 0.500000
#
# Coordination Sequence:
#
# PCOD9004314 Si02
#       8
#     2   2   2   2   2   2   2   2
#     4  10  21  37  65  96 116 160 207 255 308 353
#     4  11  26  38  62  89 129 168 201 251 312 366
#     4   9  19  35  65  92 118 156 205 251 303 361
#     4   9  20  37  60  91 124 157 197 254 306 361
#     4  11  22  42  61  92 125 164 202 254 315 357
#     4  12  20  38  62  98 125 162 204 251 307 364
#     4  12  24  44  67  87 121 162 215 257 298 372
#     4  12  19  35  68  95 123 159 209 256 300 364
#
# _framework density 23.620756
#
# number of rings (size 3 to 8) (size 9 to 14) (size 15 to 20)
#    0.750    0.500    3.750    2.625    3.500    1.000 
#    0.000    2.500    2.750    0.000    0.000    0.000 
#    0.000    0.000    0.000    0.000    0.000    0.000 
#
# Total GULP energy -89394.116985 kJ/mol
# GULP energy per Si atom -5587.132312 kJ/mol
# Density = 2.356699 g / cm^3
# Si number density = 23.620756 Si / 1000 Ang^3
#
#
#
# Elastic Constant Matrix: (Units=GPa)
#
#
# Indices 1 2 3 4 5 6 
#
# 1 88.3289 37.9635 14.0641 -0.7396 18.4172 6.7825
# 2 37.9635 131.0825 25.6095 -6.5464 4.8200 11.0883
# 3 14.0641 25.6095 37.4637 -3.5551 7.0124 1.5329
# 4 -0.7396 -6.5464 -3.5551 19.5634 8.0651 -0.0825
# 5 18.4172 4.8200 7.0124 8.0651 32.5741 5.4829
# 6 6.7825 11.0883 1.5329 -0.0825 5.4829 35.3341
#
#
#
# Elastic Compliance Matrix: (Units=1/GPa)
#
#
# Indices 1 2 3 4 5 6 
#
# 1 0.014811 -0.003571 -0.001355 0.002454 -0.008094 -0.000402
# 2 -0.003571 0.009966 -0.005573 0.001432 0.001806 -0.002477
# 3 -0.001355 -0.005573 0.033050 0.007236 -0.007614 0.001774
# 4 0.002454 0.001432 0.007236 0.060623 -0.018465 0.001772
# 5 -0.008094 0.001806 -0.007614 -0.018465 0.042105 -0.005259
# 6 -0.000402 -0.002477 0.001774 0.001772 -0.005259 0.029899
#
#
# Mechanical properties :
#
#
# Convention : Reuss Voigt Hill
#
# Bulk Modulus (GPa) = 27.15186 45.79436 36.47311
# Shear Modulus (GPa) = 22.34856 29.44352 25.89604
#
# Velocity S-wave (km/s) = 3.07928 3.53443 3.31467
# Velocity P-wave (km/s) = 4.91553 6.00713 5.48854
#
# Compressibility (1/GPa) = 0.03682990
#
# Stress axis : x y z
#
# Youngs Moduli (GPa) = 67.51884 100.33744 30.25685
#
# Poissons Ratio (x) = 0.35826 0.04100
# Poissons Ratio (y) = 0.24108 0.16863
# Poissons Ratio (z) = 0.09149 0.55921
#
# Static dielectric constant tensor:
#      x y z
#    x 1.845680 -0.003170 -0.002360 
#    y -0.003170 1.902140 0.008100 
#    z -0.002360 0.008100 1.974290 
# 
# From -- ./inp_files/613181.got.cif
#   From: 2010.05.17/outbox.cif.g08.bks.cpg/sg2_307_cif.got.tgz:613181.got - 2010.06.03 11:33:40.
