data_PCOD9004265
_publ_section_title
;
Structure prediction by ZEFSAII (Michael W. Deem and Ramdas Pophale) SiO2 
 PCOD9004265
Probable space group: P -1
;
_chemical_formula_sum "Si O2"
_cell_formula_units_Z 16
_cell_length_a 15.264466
_cell_length_b 7.026123
_cell_length_c 7.475366
_cell_angle_alpha 115.824363
_cell_angle_beta 112.309012
_cell_angle_gamma 81.851198
_cell_volume 667.381678
_symmetry_space_group_name_H-M "P -1"
_symmetry_group_IT_number 2
_symmetry_cell_setting 'triclinic'
loop_
_space_group_symop_operation_xyz
x,y,z
-x,-y,-z
loop_
_atom_site_type_symbol
_atom_site_label
_atom_site_fract_x
_atom_site_fract_y
_atom_site_fract_z
Si Si1 0.761764 0.203373 0.257153
Si Si2 0.602858 0.092566 0.577846
Si Si3 0.902623 0.762087 0.852121
Si Si4 0.282135 0.259727 0.096302
Si Si5 0.577167 0.487503 0.901516
Si Si6 0.799485 0.013856 0.599430
Si Si7 0.899020 0.241498 0.080017
Si Si8 0.606878 0.444591 0.429396
O O1 0.801515 0.104738 0.436427
O O2 0.840878 0.312665 0.235294
O O3 0.681212 0.371334 0.306170
O O4 0.723926 0.991372 0.038040
O O5 0.620619 0.259326 0.818722
O O6 0.691904 0.952931 0.548005
O O7 0.601728 0.233785 0.457605
O O8 0.500000 0.000000 0.500000
O O9 0.821702 0.673067 0.887115
O O10 0.001225 0.649387 0.852518
O O11 0.860176 0.822230 0.647563
O O12 0.924278 0.996668 0.049275
O O13 0.335206 0.350078 0.996514
O O14 0.348135 0.362483 0.343567
O O15 0.498252 0.511767 0.695217
O O16 0.500000 0.500000 0.000000
O O17 0.833900 0.203644 0.838622
#
# Coordination Sequence:
#
# PCOD9004265 Si02
#       8
#     2   2   2   2   2   2   2   2
#     4  10  21  37  65  91 118 167 203 248 312 371
#     4  10  22  37  60  86 119 161 204 251 309 359
#     4   8  17  34  60  89 121 160 200 260 305 361
#     4  10  21  40  60  84 125 159 202 256 308 354
#     4  11  26  38  58  90 122 164 209 253 309 373
#     4   9  19  33  60  89 123 157 206 254 300 370
#     4   8  17  35  57  93 121 156 209 254 303 364
#     4  10  24  42  58  88 126 162 202 261 305 365
#
# _framework density 23.974288000000001
#
# number of rings (size 3 to 8) (size 9 to 14) (size 15 to 20)
#    0.750    1.750    0.000    1.500    8.750    1.000 
#    0.000    0.625    0.000    6.750    0.000    0.000 
#    0.000    0.000    0.000    0.000    0.000    0.000 
#
# Total GULP energy -89102.227016 kJ/mol
# GULP energy per Si atom -5568.889188 kJ/mol
# Density = 2.391972 g / cm^3
# Si number density = 23.974288 Si / 1000 Ang^3
#
#
#
# Elastic Constant Matrix: (Units=GPa)
#
#
# Indices 1 2 3 4 5 6 
#
# 1 208.2626 28.0404 48.5987 -7.9282 -1.8728 24.7823
# 2 28.0404 51.0062 27.2722 -9.5054 -1.8628 8.9593
# 3 48.5987 27.2722 65.0525 -2.6166 -2.1662 4.8248
# 4 -7.9282 -9.5054 -2.6166 18.6164 -1.1448 -8.4402
# 5 -1.8728 -1.8628 -2.1662 -1.1448 32.5762 -0.5754
# 6 24.7823 8.9593 4.8248 -8.4402 -0.5754 29.0519
#
#
#
# Elastic Compliance Matrix: (Units=1/GPa)
#
#
# Indices 1 2 3 4 5 6 
#
# 1 0.006405 -0.000471 -0.004251 -0.000234 -0.000032 -0.004681
# 2 -0.000471 0.028374 -0.010806 0.011382 0.001220 -0.003223
# 3 -0.004251 -0.010806 0.022805 -0.003044 0.000588 0.002298
# 4 -0.000234 0.011382 -0.003044 0.066735 0.003074 0.016644
# 5 -0.000032 0.001220 0.000588 0.003074 0.030931 0.001059
# 6 -0.004681 -0.003223 0.002298 0.016644 0.001059 0.043883
#
#
# Mechanical properties :
#
#
# Convention : Reuss Voigt Hill
#
# Bulk Modulus (GPa) = 37.69581 59.12711 48.41146
# Shear Modulus (GPa) = 20.91782 30.74288 25.83035
#
# Velocity S-wave (km/s) = 2.95703 3.58484 3.28597
# Velocity P-wave (km/s) = 5.23606 6.46924 5.88504
#
# Compressibility (1/GPa) = 0.02652814
#
# Stress axis : x y z
#
# Youngs Moduli (GPa) = 156.13396 35.24353 43.85049
#
# Poissons Ratio (x) = 0.01659 0.18640
# Poissons Ratio (y) = 0.07351 0.47385
# Poissons Ratio (z) = 0.66369 0.38085
#
# Static dielectric constant tensor:
#      x y z
#    x 1.988380 0.036610 -0.082960 
#    y 0.036610 2.006820 -0.105150 
#    z -0.082960 -0.105150 2.082220 
# 
# From -- ./inp_files/296464.got.cif
#   From: 2010.05.17/outbox.cif.g08.bks.cpg/sg2_149_cif.got.tgz:296464.got - 2010.06.03 11:33:40.
