data_PCOD9004437
_publ_section_title
;
Structure prediction by ZEFSAII (Michael W. Deem and Ramdas Pophale) SiO2 
 PCOD9004437
Probable space group: P -1
;
_chemical_formula_sum "Si O2"
_cell_formula_units_Z 14
_cell_length_a 8.568574
_cell_length_b 10.666893
_cell_length_c 10.007902
_cell_angle_alpha 127.774527
_cell_angle_beta 82.997529
_cell_angle_gamma 127.336013
_cell_volume 527.587819
_symmetry_space_group_name_H-M "P -1"
_symmetry_group_IT_number 2
_symmetry_cell_setting 'triclinic'
loop_
_space_group_symop_operation_xyz
x,y,z
-x,-y,-z
loop_
_atom_site_type_symbol
_atom_site_label
_atom_site_fract_x
_atom_site_fract_y
_atom_site_fract_z
Si Si1 0.247328 0.071149 0.110656
Si Si2 0.275500 0.636453 0.639384
Si Si3 0.224055 0.084191 0.414924
Si Si4 0.557967 0.037029 0.361096
Si Si5 0.370989 0.575232 0.070429
Si Si6 0.159530 0.350160 0.213693
Si Si7 0.127140 0.338431 0.683574
O O1 0.497838 0.207256 0.199343
O O2 0.133822 0.038902 0.244553
O O3 0.231482 0.215871 0.116052
O O4 0.094584 0.832042 0.909896
O O5 0.241975 0.473998 0.426580
O O6 0.117982 0.473807 0.668779
O O7 0.252304 0.770896 0.629883
O O8 0.284911 0.303401 0.596232
O O9 0.396155 0.067278 0.358113
O O10 0.087084 0.909776 0.433595
O O11 0.510124 0.824723 0.188328
O O12 0.500000 0.000000 0.500000
O O13 0.270123 0.519035 0.191232
O O14 0.500000 0.500000 0.000000
O O15 0.190460 0.443367 0.890129
#
# Coordination Sequence:
#
# PCOD9004437 Si02
#       7
#     2   2   2   2   2   2   2
#     4  10  21  37  67 107 129 180 236 271 329 426
#     4  11  23  42  73  96 143 184 226 283 349 408
#     4  10  22  41  68 101 141 180 230 279 344 421
#     4  11  24  43  68 100 133 189 236 277 348 425
#     4  12  25  41  68 101 137 177 237 295 345 405
#     4  11  21  40  68 102 136 182 232 277 341 417
#     4  11  23  42  67 105 139 182 220 291 351 394
#
# _framework density 26.535868000000001
#
# number of rings (size 3 to 8) (size 9 to 14) (size 15 to 20)
#    0.000    1.143    4.286    2.143    4.000    1.143 
#    0.000    2.143    3.143    0.000    0.000    0.000 
#    0.000    0.000    0.000    0.000    0.000    0.000 
#
# Total GULP energy -78161.418908 kJ/mol
# GULP energy per Si atom -5582.958493 kJ/mol
# Density = 2.647547 g / cm^3
# Si number density = 26.535868 Si / 1000 Ang^3
#
#
#
# Elastic Constant Matrix: (Units=GPa)
#
#
# Indices 1 2 3 4 5 6 
#
# 1 72.3363 18.8948 27.4955 10.7070 8.8234 -4.3971
# 2 18.8948 185.6171 29.8360 -6.9338 5.9331 -33.4357
# 3 27.4955 29.8360 89.5438 -4.6534 11.2861 -9.3400
# 4 10.7070 -6.9338 -4.6534 59.9848 -2.5254 -6.0968
# 5 8.8234 5.9331 11.2861 -2.5254 46.8754 1.8749
# 6 -4.3971 -33.4357 -9.3400 -6.0968 1.8749 36.5988
#
#
#
# Elastic Compliance Matrix: (Units=1/GPa)
#
#
# Indices 1 2 3 4 5 6 
#
# 1 0.016666 -0.001140 -0.004751 -0.003637 -0.002015 -0.000754
# 2 -0.001140 0.006865 -0.001153 0.001507 -0.000540 0.006119
# 3 -0.004751 -0.001153 0.013630 0.001911 -0.002230 0.002287
# 4 -0.003637 0.001507 0.001911 0.018125 0.000834 0.004404
# 5 -0.002015 -0.000540 -0.002230 0.000834 0.022455 -0.002316
# 6 -0.000754 0.006119 0.002287 0.004404 -0.002316 0.034259
#
#
# Mechanical properties :
#
#
# Convention : Reuss Voigt Hill
#
# Bulk Modulus (GPa) = 43.34221 55.54997 49.44609
# Shear Modulus (GPa) = 37.37520 46.77652 42.07586
#
# Velocity S-wave (km/s) = 3.75704 4.20309 3.98631
# Velocity P-wave (km/s) = 5.93206 6.67337 6.31361
#
# Compressibility (1/GPa) = 0.02307219
#
# Stress axis : x y z
#
# Youngs Moduli (GPa) = 60.00105 145.67690 73.36947
#
# Poissons Ratio (x) = 0.16609 0.34861
# Poissons Ratio (y) = 0.06841 0.08456
# Poissons Ratio (z) = 0.28509 0.16790
#
# Static dielectric constant tensor:
#      x y z
#    x 2.421280 0.176720 -0.046480 
#    y 0.176720 2.164270 -0.020640 
#    z -0.046480 -0.020640 2.087510 
# 
# From -- ./inp_files/263066.got.cif
#   From: 2010.05.17/outbox.cif.g08.bks.cpg/sg2_132_cif.got.tgz:263066.got - 2010.06.03 11:33:40.
