data_PCOD9004275
_publ_section_title
;
Structure prediction by ZEFSAII (Michael W. Deem and Ramdas Pophale) SiO2 
 PCOD9004275
Probable space group: P -1
;
_chemical_formula_sum "Si O2"
_cell_formula_units_Z 14
_cell_length_a 11.695210
_cell_length_b 5.576730
_cell_length_c 15.225113
_cell_angle_alpha 116.410380
_cell_angle_beta 47.413148
_cell_angle_gamma 92.467444
_cell_volume 602.616398
_symmetry_space_group_name_H-M "P -1"
_symmetry_group_IT_number 2
_symmetry_cell_setting 'triclinic'
loop_
_space_group_symop_operation_xyz
x,y,z
-x,-y,-z
loop_
_atom_site_type_symbol
_atom_site_label
_atom_site_fract_x
_atom_site_fract_y
_atom_site_fract_z
Si Si1 0.529412 0.271865 0.070154
Si Si2 0.031789 0.423795 0.220392
Si Si3 0.283556 0.094597 0.546893
Si Si4 0.326552 0.021333 0.879877
Si Si5 0.378872 0.833442 0.629755
Si Si6 0.150423 0.943393 0.234953
Si Si7 0.677023 0.116580 0.697859
O O1 0.358573 0.549181 0.210138
O O2 0.608534 0.222880 0.118119
O O3 0.500000 0.000000 0.000000
O O4 0.672028 0.283816 0.933774
O O5 0.078756 0.201547 0.242206
O O6 0.830604 0.560503 0.330882
O O7 0.054595 0.730620 0.267421
O O8 0.155604 0.256535 0.048924
O O9 0.483440 0.019156 0.422858
O O10 0.260389 0.949969 0.625887
O O11 0.253949 0.973717 0.449309
O O12 0.491345 0.105570 0.802102
O O13 0.299591 0.912808 0.780506
O O14 0.500000 0.500000 0.500000
O O15 0.196659 0.061696 0.320749
#
# Coordination Sequence:
#
# PCOD9004275 Si02
#       7
#     2   2   2   2   2   2   2
#     4  11  19  34  61  98 125 168 217 265 297 380
#     4  11  25  43  61 102 130 173 204 269 320 388
#     4  10  25  42  64  90 128 161 219 265 327 380
#     4  10  21  37  65  92 126 166 219 259 321 371
#     4  10  22  45  68  90 117 166 219 275 319 384
#     4  11  23  38  65  93 140 165 217 251 321 379
#     4  11  20  38  62  92 126 177 209 260 307 384
#
# _framework density 23.232028
#
# number of rings (size 3 to 8) (size 9 to 14) (size 15 to 20)
#    0.000    1.429    2.857    3.000    2.000    1.714 
#    0.000    0.714    0.000    0.000    0.000    0.000 
#    0.000    0.000    0.000    0.000    0.000    0.000 
#
# Total GULP energy -78103.785044 kJ/mol
# GULP energy per Si atom -5578.841789 kJ/mol
# Density = 2.317915 g / cm^3
# Si number density = 23.232028 Si / 1000 Ang^3
#
#
#
# Elastic Constant Matrix: (Units=GPa)
#
#
# Indices 1 2 3 4 5 6 
#
# 1 84.6030 44.4524 79.4362 -15.6933 29.4000 -39.6834
# 2 44.4524 85.4336 55.2199 0.9780 26.6659 -26.1165
# 3 79.4362 55.2199 142.7315 -4.0926 21.0189 -38.0533
# 4 -15.6933 0.9780 -4.0926 24.8955 -11.1509 -3.4802
# 5 29.4000 26.6659 21.0189 -11.1509 47.6627 -17.1951
# 6 -39.6834 -26.1165 -38.0533 -3.4802 -17.1951 52.3190
#
#
#
# Elastic Compliance Matrix: (Units=1/GPa)
#
#
# Indices 1 2 3 4 5 6 
#
# 1 0.048161 -0.006510 -0.017155 0.029004 -0.003986 0.021422
# 2 -0.006510 0.019504 -0.003218 -0.009014 -0.007846 -0.000720
# 3 -0.017155 -0.003218 0.016644 -0.007074 0.002622 -0.002121
# 4 0.029004 -0.009014 -0.007074 0.066672 0.013532 0.021237
# 5 -0.003986 -0.007846 0.002622 0.013532 0.032161 0.006437
# 6 0.021422 -0.000720 -0.002121 0.021237 0.006437 0.036987
#
#
# Mechanical properties :
#
#
# Convention : Reuss Voigt Hill
#
# Bulk Modulus (GPa) = 32.74051 74.55390 53.64721
# Shear Modulus (GPa) = 17.60084 33.88607 25.74346
#
# Velocity S-wave (km/s) = 2.75546 3.82330 3.33243
# Velocity P-wave (km/s) = 4.92411 7.18685 6.16026
#
# Compressibility (1/GPa) = 0.03054320
#
# Stress axis : x y z
#
# Youngs Moduli (GPa) = 20.76355 51.27174 60.08109
#
# Poissons Ratio (x) = 0.33379 1.03071
# Poissons Ratio (y) = 0.13517 0.19332
# Poissons Ratio (z) = 0.35621 0.16497
#
# Static dielectric constant tensor:
#      x y z
#    x 2.070560 0.070860 -0.047250 
#    y 0.070860 1.962200 -0.037000 
#    z -0.047250 -0.037000 1.833670 
# 
# From -- ./inp_files/38076.got.cif
#   From: 2010.05.17/outbox.cif.g08.bks.cpg/sg2_20_cif.got.tgz:38076.got - 2010.06.03 11:33:40.
