data_PCOD9004536
_publ_section_title
;
Structure prediction by ZEFSAII (Michael W. Deem and Ramdas Pophale) SiO2 
 PCOD9004536
Probable space group: P -1
;
_chemical_formula_sum "Si O2"
_cell_formula_units_Z 16
_cell_length_a 19.313635
_cell_length_b 14.042900
_cell_length_c 9.394338
_cell_angle_alpha 130.385002
_cell_angle_beta 56.381156
_cell_angle_gamma 160.561639
_cell_volume 629.144846
_symmetry_space_group_name_H-M "P -1"
_symmetry_group_IT_number 2
_symmetry_cell_setting 'triclinic'
loop_
_space_group_symop_operation_xyz
x,y,z
-x,-y,-z
loop_
_atom_site_type_symbol
_atom_site_label
_atom_site_fract_x
_atom_site_fract_y
_atom_site_fract_z
Si Si1 0.005625 0.935532 0.282334
Si Si2 0.295259 0.706537 0.050494
Si Si3 0.101202 0.691900 0.864613
Si Si4 0.603538 0.129812 0.353601
Si Si5 0.314504 0.148551 0.821523
Si Si6 0.762490 0.818683 0.331217
Si Si7 0.575114 0.366044 0.523062
Si Si8 0.656691 0.866819 0.720954
O O1 0.253127 0.287202 0.306612
O O2 0.878574 0.632044 0.136130
O O3 0.000000 0.000000 0.500000
O O4 0.888355 0.865282 0.240365
O O5 0.201605 0.697995 0.710661
O O6 0.153114 0.634768 0.164840
O O7 0.500000 0.000000 0.000000
O O8 0.405817 0.812672 0.171769
O O9 0.197449 0.852381 0.066967
O O10 0.189430 0.917348 0.871389
O O11 0.662929 0.349093 0.435249
O O12 0.500000 0.000000 0.500000
O O13 0.190247 0.051848 0.746852
O O14 0.401080 0.151153 0.633608
O O15 0.500000 0.500000 0.000000
O O16 0.796290 0.961463 0.562582
O O17 0.515652 0.439599 0.276729
O O18 0.488659 0.268364 0.366864
#
# Coordination Sequence:
#
# PCOD9004536 Si02
#       8
#     2   2   2   2   2   2   2   2
#     4  12  23  44  78 118 159 206 267 339 406 472
#     4  12  31  54  81 123 162 211 281 339 401 492
#     4  12  26  51  82 111 165 220 268 328 421 479
#     4  12  29  55  79 115 170 219 268 335 409 498
#     4  11  22  42  74 113 154 210 266 330 403 484
#     4  10  21  37  69 112 162 197 261 330 400 469
#     4  11  25  47  77 118 165 205 273 340 398 484
#     4  10  21  42  72 116 158 206 265 336 399 477
#
# _framework density 25.431345
#
# number of rings (size 3 to 8) (size 9 to 14) (size 15 to 20)
#    0.000    0.750    3.750    3.000    3.500    2.000 
#    4.500    1.875    0.000    0.000    0.000    0.000 
#    0.000    0.000    0.000    0.000    0.000    0.000 
#
# Total GULP energy -89610.833044 kJ/mol
# GULP energy per Si atom -5600.677065 kJ/mol
# Density = 2.537346 g / cm^3
# Si number density = 25.431345 Si / 1000 Ang^3
#
#
#
# Elastic Constant Matrix: (Units=GPa)
#
#
# Indices 1 2 3 4 5 6 
#
# 1 178.0712 67.4754 39.1670 -19.3307 -8.8933 5.0687
# 2 67.4754 138.0327 45.6002 -0.5247 -1.4466 -5.7784
# 3 39.1670 45.6002 104.0941 -7.3409 4.4458 -4.8238
# 4 -19.3307 -0.5247 -7.3409 37.0695 -7.2763 -9.3983
# 5 -8.8933 -1.4466 4.4458 -7.2763 44.6662 -11.4519
# 6 5.0687 -5.7784 -4.8238 -9.3983 -11.4519 43.2985
#
#
#
# Elastic Compliance Matrix: (Units=1/GPa)
#
#
# Indices 1 2 3 4 5 6 
#
# 1 0.007711 -0.003317 -0.001249 0.004168 0.002234 0.000011
# 2 -0.003317 0.009955 -0.003209 -0.002023 -0.000120 0.000888
# 3 -0.001249 -0.003209 0.011698 0.001725 -0.000942 0.001147
# 4 0.004168 -0.002023 0.001725 0.033339 0.008297 0.008865
# 5 0.002234 -0.000120 -0.000942 0.008297 0.026430 0.008409
# 6 0.000011 0.000888 0.001147 0.008865 0.008409 0.027489
#
#
# Mechanical properties :
#
#
# Convention : Reuss Voigt Hill
#
# Bulk Modulus (GPa) = 72.39809 80.52036 76.45922
# Shear Modulus (GPa) = 36.55600 42.87055 39.71328
#
# Velocity S-wave (km/s) = 3.79547 4.11023 3.95598
# Velocity P-wave (km/s) = 6.90922 7.36586 7.14119
#
# Compressibility (1/GPa) = 0.01381252
#
# Stress axis : x y z
#
# Youngs Moduli (GPa) = 129.68195 100.45694 85.48799
#
# Poissons Ratio (x) = 0.33322 0.10680
# Poissons Ratio (y) = 0.43016 0.27433
# Poissons Ratio (z) = 0.16201 0.32236
#
# Static dielectric constant tensor:
#      x y z
#    x 2.071140 0.017820 -0.044270 
#    y 0.017820 2.071610 0.014910 
#    z -0.044270 0.014910 2.033350 
# 
# From -- ./inp_files/347639.got.cif
#   From: 2010.05.17/outbox.cif.g08.bks.cpg/sg2_174_cif.got.tgz:347639.got - 2010.06.03 11:33:40.
