data_PCOD9004396
_publ_section_title
;
Structure prediction by ZEFSAII (Michael W. Deem and Ramdas Pophale) SiO2 
 PCOD9004396
Probable space group: P -1
;
_chemical_formula_sum "Si O2"
_cell_formula_units_Z 14
_cell_length_a 12.281658
_cell_length_b 6.040856
_cell_length_c 18.186695
_cell_angle_alpha 103.032982
_cell_angle_beta 34.951482
_cell_angle_gamma 119.962254
_cell_volume 622.050599
_symmetry_space_group_name_H-M "P -1"
_symmetry_group_IT_number 2
_symmetry_cell_setting 'triclinic'
loop_
_space_group_symop_operation_xyz
x,y,z
-x,-y,-z
loop_
_atom_site_type_symbol
_atom_site_label
_atom_site_fract_x
_atom_site_fract_y
_atom_site_fract_z
Si Si1 0.196538 0.138865 0.317322
Si Si2 0.748757 0.041490 0.474982
Si Si3 0.898016 0.574714 0.495387
Si Si4 0.045930 0.010547 0.786561
Si Si5 0.698199 0.422569 0.223847
Si Si6 0.925231 0.717288 0.979832
Si Si7 0.592412 0.800773 0.936410
O O1 0.980280 0.107371 0.392012
O O2 0.115282 0.828771 0.353834
O O3 0.228032 0.300153 0.386453
O O4 0.398014 0.266748 0.158677
O O5 0.536927 0.797599 0.620019
O O6 0.748905 0.313421 0.507226
O O7 0.787923 0.003634 0.365389
O O8 0.000000 0.500000 0.500000
O O9 0.920796 0.769378 0.899165
O O10 0.844131 0.991396 0.849281
O O11 0.192147 0.292643 0.771613
O O12 0.869178 0.324853 0.130434
O O13 0.717921 0.487472 0.129930
O O14 0.000000 0.000000 0.000000
O O15 0.500000 0.500000 0.000000
O O16 0.500000 0.000000 0.000000
#
# Coordination Sequence:
#
# PCOD9004396 Si02
#       7
#     2   2   2   2   2   2   2
#     4   9  21  42  61  90 136 169 225 290 336 404
#     4  10  21  37  66  94 129 169 231 273 346 407
#     4   9  19  38  61  87 126 174 218 287 335 393
#     4  10  23  42  66  93 136 175 224 291 338 410
#     4  10  21  41  63  99 132 177 219 283 342 418
#     4   9  21  42  61  88 139 170 223 270 345 404
#     4  11  27  46  70 103 136 185 235 283 349 417
#
# _framework density 22.506207
#
# number of rings (size 3 to 8) (size 9 to 14) (size 15 to 20)
#    0.000    2.286    0.000    0.429    8.000    4.000 
#   15.429    0.000    0.000    0.000    0.000    0.000 
#    0.000    0.000    0.000    0.000    0.000    0.000 
#
# Total GULP energy -78016.582181 kJ/mol
# GULP energy per Si atom -5572.613013 kJ/mol
# Density = 2.245498 g / cm^3
# Si number density = 22.506207 Si / 1000 Ang^3
#
#
#
# Elastic Constant Matrix: (Units=GPa)
#
#
# Indices 1 2 3 4 5 6 
#
# 1 79.8424 33.8075 58.4758 5.4534 23.6577 -3.2750
# 2 33.8075 140.4637 85.7616 -4.6216 18.2223 -9.5912
# 3 58.4758 85.7616 195.5514 -5.5021 35.3728 -0.2860
# 4 5.4534 -4.6216 -5.5021 22.2401 1.1139 15.2736
# 5 23.6577 18.2223 35.3728 1.1139 42.0942 -4.9864
# 6 -3.2750 -9.5912 -0.2860 15.2736 -4.9864 20.2123
#
#
#
# Elastic Compliance Matrix: (Units=1/GPa)
#
#
# Indices 1 2 3 4 5 6 
#
# 1 0.019371 -0.000554 -0.005149 -0.014752 -0.004406 0.012863
# 2 -0.000554 0.010440 -0.004701 -0.004887 0.000904 0.008714
# 3 -0.005149 -0.004701 0.010029 0.012408 -0.005443 -0.013642
# 4 -0.014752 -0.004887 0.012408 0.118452 -0.014726 -0.097676
# 5 -0.004406 0.000904 -0.005443 -0.014726 0.033046 0.018918
# 6 0.012863 0.008714 -0.013642 -0.097676 0.018918 0.133978
#
#
# Mechanical properties :
#
#
# Convention : Reuss Voigt Hill
#
# Bulk Modulus (GPa) = 52.54368 85.77192 69.15780
# Shear Modulus (GPa) = 14.18570 32.76351 23.47461
#
# Velocity S-wave (km/s) = 2.51330 3.81957 3.23310
# Velocity P-wave (km/s) = 5.64086 7.59245 6.68822
#
# Compressibility (1/GPa) = 0.01903178
#
# Stress axis : x y z
#
# Youngs Moduli (GPa) = 51.62358 95.78647 99.71197
#
# Poissons Ratio (x) = 0.05308 0.51339
# Poissons Ratio (y) = 0.02861 0.46876
# Poissons Ratio (z) = 0.26580 0.45031
#
# Static dielectric constant tensor:
#      x y z
#    x 1.910290 -0.063030 0.005350 
#    y -0.063030 1.965730 -0.005730 
#    z 0.005350 -0.005730 1.860200 
# 
# From -- ./inp_files/571780.got.cif
#   From: 2010.05.17/outbox.cif.g08.bks.cpg/sg2_286_cif.got.tgz:571780.got - 2010.06.03 11:33:40.
