data_PCOD9004332
_publ_section_title
;
Structure prediction by ZEFSAII (Michael W. Deem and Ramdas Pophale) SiO2 
 PCOD9004332
Probable space group: P -1
;
_chemical_formula_sum "Si O2"
_cell_formula_units_Z 14
_cell_length_a 9.022645
_cell_length_b 10.244435
_cell_length_c 11.585451
_cell_angle_alpha 73.336650
_cell_angle_beta 53.826449
_cell_angle_gamma 46.003105
_cell_volume 607.691675
_symmetry_space_group_name_H-M "P -1"
_symmetry_group_IT_number 2
_symmetry_cell_setting 'triclinic'
loop_
_space_group_symop_operation_xyz
x,y,z
-x,-y,-z
loop_
_atom_site_type_symbol
_atom_site_label
_atom_site_fract_x
_atom_site_fract_y
_atom_site_fract_z
Si Si1 0.136015 0.055791 0.361136
Si Si2 0.530807 0.008635 0.347888
Si Si3 0.728634 0.481807 0.370082
Si Si4 0.509166 0.796804 0.054114
Si Si5 0.715071 0.600610 0.582302
Si Si6 0.183243 0.141247 0.962369
Si Si7 0.369373 0.531563 0.828869
O O1 0.319820 0.028206 0.376149
O O2 0.965777 0.266180 0.340935
O O3 0.286756 0.920854 0.218224
O O4 0.000000 0.000000 0.500000
O O5 0.463315 0.201928 0.324981
O O6 0.500000 0.000000 0.500000
O O7 0.770811 0.858749 0.195073
O O8 0.500000 0.500000 0.500000
O O9 0.689187 0.532071 0.241898
O O10 0.705573 0.608845 0.444525
O O11 0.585580 0.601363 0.058361
O O12 0.386629 0.926353 0.965018
O O13 0.730581 0.776502 0.014438
O O14 0.606171 0.508975 0.697449
O O15 0.000000 0.500000 0.500000
O O16 0.891748 0.257269 0.087285
#
# Coordination Sequence:
#
# PCOD9004332 Si02
#       7
#     2   2   2   2   2   2   2
#     4  11  21  39  67 100 135 178 233 289 341 405
#     4  11  27  44  66  97 141 187 226 288 360 418
#     4  10  21  37  65  98 132 172 231 287 331 410
#     4  10  22  40  70 105 137 175 235 298 347 400
#     4  11  24  44  63 101 145 183 230 282 349 419
#     4  10  23  46  68 103 140 178 239 295 345 420
#     4  11  23  43  74 102 134 186 237 289 348 412
#
# _framework density 23.037997000000001
#
# number of rings (size 3 to 8) (size 9 to 14) (size 15 to 20)
#    0.000    1.429    2.857    2.143    8.000    0.571 
#    2.571    0.714    0.000    0.000    0.000    0.000 
#    0.000    0.000    0.000    0.000    0.000    0.000 
#
# Total GULP energy -78160.441763 kJ/mol
# GULP energy per Si atom -5582.888697 kJ/mol
# Density = 2.298556 g / cm^3
# Si number density = 23.037997 Si / 1000 Ang^3
#
#
#
# Elastic Constant Matrix: (Units=GPa)
#
#
# Indices 1 2 3 4 5 6 
#
# 1 81.7209 15.6139 36.6311 5.2449 0.3818 2.1025
# 2 15.6139 67.7148 18.2473 -3.9351 -8.4352 -2.0286
# 3 36.6311 18.2473 105.0523 1.3821 -1.2312 -10.6433
# 4 5.2449 -3.9351 1.3821 41.3768 0.8434 -5.5257
# 5 0.3818 -8.4352 -1.2312 0.8434 38.0417 2.7814
# 6 2.1025 -2.0286 -10.6433 -5.5257 2.7814 28.6985
#
#
#
# Elastic Compliance Matrix: (Units=1/GPa)
#
#
# Indices 1 2 3 4 5 6 
#
# 1 0.015317 -0.002435 -0.005264 -0.002477 -0.000541 -0.003671
# 2 -0.002435 0.016417 -0.001920 0.001951 0.003511 0.000662
# 3 -0.005264 -0.001920 0.012175 0.000745 -0.000357 0.004943
# 4 -0.002477 0.001951 0.000745 0.025391 -0.000486 0.005532
# 5 -0.000541 0.003511 -0.000357 -0.000486 0.027259 -0.002580
# 6 -0.003671 0.000662 0.004943 0.005532 -0.002580 0.038309
#
#
# Mechanical properties :
#
#
# Convention : Reuss Voigt Hill
#
# Bulk Modulus (GPa) = 40.53149 43.94140 42.23644
# Shear Modulus (GPa) = 30.80145 33.88978 32.34562
#
# Velocity S-wave (km/s) = 3.66045 3.83957 3.75108
# Velocity P-wave (km/s) = 5.95791 6.22666 6.09377
#
# Compressibility (1/GPa) = 0.02467218
#
# Stress axis : x y z
#
# Youngs Moduli (GPa) = 65.28534 60.91168 82.13634
#
# Poissons Ratio (x) = 0.14830 0.43235
# Poissons Ratio (y) = 0.15895 0.15771
# Poissons Ratio (z) = 0.34365 0.11696
#
# Static dielectric constant tensor:
#      x y z
#    x 1.844440 0.005940 -0.008340 
#    y 0.005940 2.018110 -0.266180 
#    z -0.008340 -0.266180 2.460330 
# 
# From -- ./inp_files/392302.got.cif
#   From: 2010.05.17/outbox.cif.g08.bks.cpg/sg2_197_cif.got.tgz:392302.got - 2010.06.03 11:33:40.
