data_PCOD9004632
_publ_section_title
;
Structure prediction by ZEFSAII (Michael W. Deem and Ramdas Pophale) SiO2 
 PCOD9004632
Probable space group: P -1
;
_chemical_formula_sum "Si O2"
_cell_formula_units_Z 16
_cell_length_a 14.478135
_cell_length_b 6.814837
_cell_length_c 17.747563
_cell_angle_alpha 75.217138
_cell_angle_beta 37.667466
_cell_angle_gamma 53.277163
_cell_volume 767.910039
_symmetry_space_group_name_H-M "P -1"
_symmetry_group_IT_number 2
_symmetry_cell_setting 'triclinic'
loop_
_space_group_symop_operation_xyz
x,y,z
-x,-y,-z
loop_
_atom_site_type_symbol
_atom_site_label
_atom_site_fract_x
_atom_site_fract_y
_atom_site_fract_z
Si Si1 0.823320 0.198100 0.325354
Si Si2 0.272881 0.801415 0.026050
Si Si3 0.387411 0.286708 0.083134
Si Si4 0.533059 0.199588 0.233593
Si Si5 0.003636 0.264462 0.636923
Si Si6 0.493115 0.427306 0.388920
Si Si7 0.635813 0.058823 0.672754
Si Si8 0.197695 0.809522 0.339323
O O1 0.679659 0.306704 0.335290
O O2 0.701445 0.434190 0.444662
O O3 0.048240 0.066207 0.171247
O O4 0.857661 0.943915 0.364948
O O5 0.320121 0.525452 0.044797
O O6 0.449752 0.764519 0.958955
O O7 0.298117 0.827914 0.918930
O O8 0.174891 0.429940 0.249549
O O9 0.500000 0.000000 0.000000
O O10 0.541872 0.212874 0.316509
O O11 0.326445 0.499484 0.312250
O O12 0.518707 0.984519 0.234150
O O13 0.881120 0.173505 0.694155
O O14 0.153280 0.197130 0.480132
O O15 0.438661 0.675969 0.350757
O O16 0.675612 0.106835 0.726446
O O17 0.000000 0.000000 0.500000
#
# Coordination Sequence:
#
# PCOD9004632 Si02
#       8
#     2   2   2   2   2   2   2   2
#     4   9  19  40  63  80 116 155 195 246 292 341
#     4  10  22  39  56  84 122 152 194 236 294 351
#     4  10  21  38  56  81 120 161 194 230 284 356
#     4  11  21  37  56  89 120 153 190 245 288 347
#     4   9  17  36  58  86 114 153 197 237 286 343
#     4   9  20  40  63  85 108 154 201 246 291 335
#     4   9  20  35  58  86 120 147 193 240 295 342
#     4   9  18  34  54  83 115 152 188 235 288 338
#
# _framework density 20.835773
#
# number of rings (size 3 to 8) (size 9 to 14) (size 15 to 20)
#    0.000    2.500    1.250    0.750    0.000    5.500 
#    2.250    8.750    0.000    0.000    0.000    0.000 
#    0.000    0.000    0.000    0.000    0.000    0.000 
#
# Total GULP energy -89241.529049 kJ/mol
# GULP energy per Si atom -5577.595566 kJ/mol
# Density = 2.078835 g / cm^3
# Si number density = 20.835773 Si / 1000 Ang^3
#
#
#
# Elastic Constant Matrix: (Units=GPa)
#
#
# Indices 1 2 3 4 5 6 
#
# 1 78.9364 27.2565 24.7589 -1.4157 17.0332 -8.5197
# 2 27.2565 52.7831 5.8887 5.2725 10.0530 8.4459
# 3 24.7589 5.8887 92.7813 13.0409 5.7531 -10.0323
# 4 -1.4157 5.2725 13.0409 21.1575 -0.2626 -2.3475
# 5 17.0332 10.0530 5.7531 -0.2626 22.5490 9.3418
# 6 -8.5197 8.4459 -10.0323 -2.3475 9.3418 23.8076
#
#
#
# Elastic Compliance Matrix: (Units=1/GPa)
#
#
# Indices 1 2 3 4 5 6 
#
# 1 0.025325 -0.012988 -0.003614 0.009267 -0.021161 0.021364
# 2 -0.012988 0.028572 0.001085 -0.010475 0.003627 -0.016783
# 3 -0.003614 0.001085 0.013527 -0.008398 -0.003136 0.004424
# 4 0.009267 -0.010475 -0.008398 0.056803 -0.003932 0.010637
# 5 -0.021161 0.003627 -0.003136 -0.003932 0.076242 -0.040484
# 6 0.021364 -0.016783 0.004424 0.010637 -0.040484 0.074401
#
#
# Mechanical properties :
#
#
# Convention : Reuss Voigt Hill
#
# Bulk Modulus (GPa) = 27.47988 37.81213 32.64600
# Shear Modulus (GPa) = 15.72160 24.60925 20.16542
#
# Velocity S-wave (km/s) = 2.74988 3.44045 3.11437
# Velocity P-wave (km/s) = 4.82700 5.82832 5.35113
#
# Compressibility (1/GPa) = 0.03639026
#
# Stress axis : x y z
#
# Youngs Moduli (GPa) = 39.48677 34.99871 73.92779
#
# Poissons Ratio (x) = 0.45457 0.26717
# Poissons Ratio (y) = 0.51286 -0.08023
# Poissons Ratio (z) = 0.14270 -0.03798
#
# Static dielectric constant tensor:
#      x y z
#    x 1.762790 0.012490 0.020370 
#    y 0.012490 1.745410 -0.010650 
#    z 0.020370 -0.010650 1.805950 
# 
# From -- ./inp_files/571665.got.cif
#   From: 2010.05.17/outbox.cif.g08.bks.cpg/sg2_286_cif.got.tgz:571665.got - 2010.06.03 11:33:40.
