data_PCOD9004282
_publ_section_title
;
Structure prediction by ZEFSAII (Michael W. Deem and Ramdas Pophale) SiO2 
 PCOD9004282
Probable space group: P -1
;
_chemical_formula_sum "Si O2"
_cell_formula_units_Z 16
_cell_length_a 7.025803
_cell_length_b 12.576827
_cell_length_c 11.115428
_cell_angle_alpha 85.676255
_cell_angle_beta 62.662036
_cell_angle_gamma 59.089400
_cell_volume 731.777272
_symmetry_space_group_name_H-M "P -1"
_symmetry_group_IT_number 2
_symmetry_cell_setting 'triclinic'
loop_
_space_group_symop_operation_xyz
x,y,z
-x,-y,-z
loop_
_atom_site_type_symbol
_atom_site_label
_atom_site_fract_x
_atom_site_fract_y
_atom_site_fract_z
Si Si1 0.148964 0.629797 0.455535
Si Si2 0.378556 0.621001 0.938352
Si Si3 0.111341 0.125270 0.924821
Si Si4 0.918114 0.516161 0.709888
Si Si5 0.972208 0.030221 0.208286
Si Si6 0.313147 0.465970 0.790006
Si Si7 0.170472 0.857166 0.510587
Si Si8 0.478520 0.802734 0.205847
O O1 0.067614 0.601488 0.352936
O O2 0.456289 0.556979 0.361948
O O3 0.063447 0.771262 0.505991
O O4 0.044412 0.572515 0.585141
O O5 0.620159 0.617005 0.812161
O O6 0.242896 0.587610 0.876758
O O7 0.500000 0.500000 0.000000
O O8 0.162464 0.753302 0.042806
O O9 0.314037 0.163380 0.875412
O O10 0.069469 0.079852 0.069122
O O11 0.185289 0.018794 0.811207
O O12 0.076907 0.479016 0.788618
O O13 0.822732 0.132288 0.348685
O O14 0.218393 0.910084 0.209793
O O15 0.431214 0.338923 0.846864
O O16 0.428318 0.801960 0.364239
O O17 0.000000 0.000000 0.500000
#
# Coordination Sequence:
#
# PCOD9004282 Si02
#       8
#     2   2   2   2   2   2   2   2
#     4   9  20  40  61  92 127 156 203 267 311 375
#     4  11  24  40  58  92 132 162 209 258 303 377
#     4  11  24  41  63  90 125 171 210 256 312 374
#     4  10  21  39  62  93 124 164 202 254 326 370
#     4  10  23  44  61  89 129 160 216 265 305 370
#     4  10  21  37  65  93 122 162 206 251 315 379
#     4   9  20  40  64  92 121 162 208 263 313 366
#     4  10  21  41  66  90 120 167 206 261 320 367
#
# _framework density 21.864574000000001
#
# number of rings (size 3 to 8) (size 9 to 14) (size 15 to 20)
#    0.000    2.000    0.000    2.250    1.750    7.500 
#   13.500    0.000    0.000    0.000    0.000    0.000 
#    0.000    0.000    0.000    0.000    0.000    0.000 
#
# Total GULP energy -89352.537387 kJ/mol
# GULP energy per Si atom -5584.533587 kJ/mol
# Density = 2.181481 g / cm^3
# Si number density = 21.864574 Si / 1000 Ang^3
#
#
#
# Elastic Constant Matrix: (Units=GPa)
#
#
# Indices 1 2 3 4 5 6 
#
# 1 51.9841 17.0228 17.7776 0.9883 12.9948 11.3520
# 2 17.0228 64.9548 17.5854 5.0461 5.4788 25.8866
# 3 17.7776 17.5854 64.8205 -1.3949 10.3529 19.6189
# 4 0.9883 5.0461 -1.3949 31.3188 8.4460 4.6568
# 5 12.9948 5.4788 10.3529 8.4460 26.9306 -6.5289
# 6 11.3520 25.8866 19.6189 4.6568 -6.5289 33.1727
#
#
#
# Elastic Compliance Matrix: (Units=1/GPa)
#
#
# Indices 1 2 3 4 5 6 
#
# 1 0.026591 -0.000927 -0.000419 0.005790 -0.017289 -0.012344
# 2 -0.000927 0.025215 0.002658 0.002967 -0.012402 -0.023789
# 3 -0.000419 0.002658 0.024015 0.008375 -0.017215 -0.020698
# 4 0.005790 0.002967 0.008375 0.041148 -0.024325 -0.019813
# 5 -0.017289 -0.012402 -0.017215 -0.024325 0.072795 0.043518
# 6 -0.012344 -0.023789 -0.020698 -0.019813 0.043518 0.076521
#
#
# Mechanical properties :
#
#
# Convention : Reuss Voigt Hill
#
# Bulk Modulus (GPa) = 12.74782 31.83677 22.29229
# Shear Modulus (GPa) = 17.25272 26.90935 22.08103
#
# Velocity S-wave (km/s) = 2.81209 3.51198 3.18134
# Velocity P-wave (km/s) = 4.04806 5.57116 4.86953
#
# Compressibility (1/GPa) = 0.07844480
#
# Stress axis : x y z
#
# Youngs Moduli (GPa) = 37.60660 39.65903 41.64023
#
# Poissons Ratio (x) = 0.03678 0.01746
# Poissons Ratio (y) = 0.03487 -0.11070
# Poissons Ratio (z) = 0.01577 -0.10543
#
# Static dielectric constant tensor:
#      x y z
#    x 1.773760 0.001510 0.047530 
#    y 0.001510 1.797270 0.014470 
#    z 0.047530 0.014470 1.860760 
# 
# From -- ./inp_files/364461.got.cif
#   From: 2010.05.17/outbox.cif.g08.bks.cpg/sg2_183_cif.got.tgz:364461.got - 2010.06.03 11:33:40.
