data_PCOD9004974
_publ_section_title
;
Structure prediction by ZEFSAII (Michael W. Deem and Ramdas Pophale) SiO2 
 PCOD9004974
Probable space group: P -1
;
_chemical_formula_sum "Si O2"
_cell_formula_units_Z 10
_cell_length_a 22.105518
_cell_length_b 21.556181
_cell_length_c 4.989362
_cell_angle_alpha 44.945083
_cell_angle_beta 46.743562
_cell_angle_gamma 12.524474
_cell_volume 363.965482
_symmetry_space_group_name_H-M "P -1"
_symmetry_group_IT_number 2
_symmetry_cell_setting 'triclinic'
loop_
_space_group_symop_operation_xyz
x,y,z
-x,-y,-z
loop_
_atom_site_type_symbol
_atom_site_label
_atom_site_fract_x
_atom_site_fract_y
_atom_site_fract_z
Si Si1 0.694712 0.757550 0.433859
Si Si2 0.955846 0.955359 0.612741
Si Si3 0.033767 0.198831 0.537571
Si Si4 0.502013 0.659187 0.461914
Si Si5 0.202321 0.182519 0.452017
O O1 0.999784 0.410776 0.616410
O O2 0.500000 0.000000 0.500000
O O3 0.519986 0.848038 0.595827
O O4 0.749343 0.776325 0.988730
O O5 0.251751 0.618589 0.642177
O O6 0.720059 0.198440 0.351922
O O7 0.835819 0.007491 0.033585
O O8 0.000000 0.000000 0.500000
O O9 0.060187 0.258680 0.450928
O O10 0.723521 0.478474 0.555077
O O11 0.239403 0.992505 0.286058
#
# Coordination Sequence:
#
# PCOD9004974 Si02
#       5
#     2   2   2   2   2
#     4  10  21  38  60  85 117 154 196 247 296 354
#     4  11  24  41  62  91 123 159 204 249 300 360
#     4  11  23  41  62  89 126 158 200 256 296 356
#     4  10  24  40  62  91 118 162 204 244 308 358
#     4  10  22  38  58  87 117 154 200 243 298 355
#
# _framework density 27.47513
#
# number of rings (size 3 to 8) (size 9 to 14) (size 15 to 20)
#    0.000    1.600    0.000    3.600    0.000    9.600 
#    0.000    0.000    0.000    0.000    0.000    0.000 
#    0.000    0.000    0.000    0.000    0.000    0.000 
#
# Total GULP energy -55667.575627 kJ/mol
# GULP energy per Si atom -5566.757563 kJ/mol
# Density = 2.741260 g / cm^3
# Si number density = 27.475130 Si / 1000 Ang^3
#
#
#
# Elastic Constant Matrix: (Units=GPa)
#
#
# Indices 1 2 3 4 5 6 
#
# 1 227.3452 107.1774 14.0298 26.3020 -12.4435 -17.0883
# 2 107.1774 254.2783 19.4133 24.0352 -1.7840 -17.8467
# 3 14.0298 19.4133 58.4537 13.8170 -7.4638 6.8003
# 4 26.3020 24.0352 13.8170 29.4743 -0.5697 5.4423
# 5 -12.4435 -1.7840 -7.4638 -0.5697 30.3548 0.6010
# 6 -17.0883 -17.8467 6.8003 5.4423 0.6010 38.7666
#
#
#
# Elastic Compliance Matrix: (Units=1/GPa)
#
#
# Indices 1 2 3 4 5 6 
#
# 1 0.006136 -0.002018 0.000250 -0.004327 0.002331 0.002303
# 2 -0.002018 0.005224 -0.001039 -0.002365 -0.000861 0.002043
# 3 0.000250 -0.001039 0.020310 -0.008276 0.004937 -0.002845
# 4 -0.004327 -0.002365 -0.008276 0.044984 -0.002949 -0.007814
# 5 0.002331 -0.000861 0.004937 -0.002949 0.035015 -0.000363
# 6 0.002303 0.002043 -0.002845 -0.007814 -0.000363 0.029353
#
#
# Mechanical properties :
#
#
# Convention : Reuss Voigt Hill
#
# Bulk Modulus (GPa) = 38.37915 91.25759 64.81837
# Shear Modulus (GPa) = 32.19155 46.34958 39.27057
#
# Velocity S-wave (km/s) = 3.42667 4.11172 3.78473
# Velocity P-wave (km/s) = 5.44565 7.47184 6.53772
#
# Compressibility (1/GPa) = 0.02605581
#
# Stress axis : x y z
#
# Youngs Moduli (GPa) = 162.97191 191.43610 49.23636
#
# Poissons Ratio (x) = 0.38640 -0.01232
# Poissons Ratio (y) = 0.32894 0.05115
# Poissons Ratio (z) = -0.04078 0.19887
#
# Static dielectric constant tensor:
#      x y z
#    x 2.205270 -0.044060 0.058040 
#    y -0.044060 2.146110 -0.090940 
#    z 0.058040 -0.090940 2.253030 
# 
# From -- ./inp_files/6854.got.cif
#   From: 2010.05.17/outbox.cif.g08.bks.cpg/sg2_4_cif.got.tgz:6854.got - 2010.06.03 11:33:40.
