data_PCOD9004482
_publ_section_title
;
Structure prediction by ZEFSAII (Michael W. Deem and Ramdas Pophale) SiO2 
 PCOD9004482
Probable space group: P -1
;
_chemical_formula_sum "Si O2"
_cell_formula_units_Z 16
_cell_length_a 9.250918
_cell_length_b 8.939971
_cell_length_c 12.446445
_cell_angle_alpha 82.173670
_cell_angle_beta 132.951108
_cell_angle_gamma 108.718891
_cell_volume 708.499350
_symmetry_space_group_name_H-M "P -1"
_symmetry_group_IT_number 2
_symmetry_cell_setting 'triclinic'
loop_
_space_group_symop_operation_xyz
x,y,z
-x,-y,-z
loop_
_atom_site_type_symbol
_atom_site_label
_atom_site_fract_x
_atom_site_fract_y
_atom_site_fract_z
Si Si1 0.882598 0.555638 0.031442
Si Si2 0.198225 0.446579 0.632626
Si Si3 0.021379 0.747014 0.276003
Si Si4 0.572614 0.747281 0.838534
Si Si5 0.584410 0.054405 0.420347
Si Si6 0.158580 0.146484 0.502237
Si Si7 0.844443 0.017271 0.181125
Si Si8 0.564415 0.225508 0.983406
O O1 0.777821 0.693631 0.941127
O O2 0.047159 0.639993 0.200660
O O3 0.690986 0.401888 0.989728
O O4 0.000000 0.500000 0.000000
O O5 0.170525 0.371982 0.744852
O O6 0.397566 0.596695 0.716671
O O7 0.206526 0.311549 0.568283
O O8 0.000000 0.500000 0.500000
O O9 0.961388 0.903869 0.196639
O O10 0.200734 0.807587 0.451043
O O11 0.559297 0.888838 0.740171
O O12 0.497891 0.768912 0.921158
O O13 0.500000 0.000000 0.500000
O O14 0.643969 0.908296 0.415405
O O15 0.000000 0.000000 0.500000
O O16 0.023587 0.141400 0.327543
O O17 0.720683 0.122539 0.052465
O O18 0.657120 0.886897 0.164511
#
# Coordination Sequence:
#
# PCOD9004482 Si02
#       8
#     2   2   2   2   2   2   2   2
#     4  12  28  46  65 101 144 182 224 277 350 415
#     4  12  21  38  72 108 132 175 236 286 333 394
#     4  11  22  45  65  98 139 180 219 286 337 408
#     4  12  24  45  73 101 132 186 232 283 337 406
#     4  11  26  46  67 101 140 178 227 285 348 405
#     4  11  21  38  66  99 136 174 231 276 334 402
#     4  10  21  37  67  99 129 174 225 283 328 389
#     4  11  22  42  71 101 133 173 235 280 330 405
#
# _framework density 22.582941999999999
#
# number of rings (size 3 to 8) (size 9 to 14) (size 15 to 20)
#    0.000    0.750    6.250    2.625    0.000    3.000 
#    4.500    2.500    0.000    0.000    0.000    0.000 
#    0.000    0.000    0.000    0.000    0.000    0.000 
#
# Total GULP energy -89306.063644 kJ/mol
# GULP energy per Si atom -5581.628978 kJ/mol
# Density = 2.253154 g / cm^3
# Si number density = 22.582942 Si / 1000 Ang^3
#
#
#
# Elastic Constant Matrix: (Units=GPa)
#
#
# Indices 1 2 3 4 5 6 
#
# 1 96.8680 39.7754 20.7193 -9.4657 -25.2893 -26.1053
# 2 39.7754 98.0176 42.2491 -1.7903 -9.7828 -32.1937
# 3 20.7193 42.2491 75.0110 -0.4987 -6.2895 -23.9463
# 4 -9.4657 -1.7903 -0.4987 52.1838 -11.6311 -1.7597
# 5 -25.2893 -9.7828 -6.2895 -11.6311 29.8541 8.9801
# 6 -26.1053 -32.1937 -23.9463 -1.7597 8.9801 37.6701
#
#
#
# Elastic Compliance Matrix: (Units=1/GPa)
#
#
# Indices 1 2 3 4 5 6 
#
# 1 0.018006 -0.003858 0.000487 0.006647 0.014794 0.006275
# 2 -0.003858 0.016908 -0.005917 -0.000249 -0.001593 0.008383
# 3 0.000487 -0.005917 0.018863 0.000407 0.000445 0.007185
# 4 0.006647 -0.000249 0.000407 0.023589 0.014106 0.002392
# 5 0.014794 -0.001593 0.000445 0.014106 0.051856 -0.002529
# 6 0.006275 0.008383 0.007185 0.002392 -0.002529 0.043341
#
#
# Mechanical properties :
#
#
# Convention : Reuss Voigt Hill
#
# Bulk Modulus (GPa) = 28.40731 52.82048 40.61389
# Shear Modulus (GPa) = 24.64607 35.08511 29.86559
#
# Velocity S-wave (km/s) = 3.30715 3.94586 3.64054
# Velocity P-wave (km/s) = 5.21435 6.64832 5.97451
#
# Compressibility (1/GPa) = 0.03520221
#
# Stress axis : x y z
#
# Youngs Moduli (GPa) = 55.53721 59.14333 53.01379
#
# Poissons Ratio (x) = 0.22817 -0.02582
# Poissons Ratio (y) = 0.21426 0.31366
# Poissons Ratio (z) = -0.02705 0.34992
#
# Static dielectric constant tensor:
#      x y z
#    x 1.908200 0.056030 0.021840 
#    y 0.056030 1.876710 -0.012960 
#    z 0.021840 -0.012960 1.956220 
# 
# From -- ./inp_files/382460.got.cif
#   From: 2010.05.17/outbox.cif.g08.bks.cpg/sg2_192_cif.got.tgz:382460.got - 2010.06.03 11:33:40.
