data_PCOD9004597
_publ_section_title
;
Structure prediction by ZEFSAII (Michael W. Deem and Ramdas Pophale) SiO2 
 PCOD9004597
Probable space group: P -1
;
_chemical_formula_sum "Si O2"
_cell_formula_units_Z 14
_cell_length_a 10.855771
_cell_length_b 16.208892
_cell_length_c 7.190883
_cell_angle_alpha 40.787757
_cell_angle_beta 73.468441
_cell_angle_gamma 44.987095
_cell_volume 490.542154
_symmetry_space_group_name_H-M "P -1"
_symmetry_group_IT_number 2
_symmetry_cell_setting 'triclinic'
loop_
_space_group_symop_operation_xyz
x,y,z
-x,-y,-z
loop_
_atom_site_type_symbol
_atom_site_label
_atom_site_fract_x
_atom_site_fract_y
_atom_site_fract_z
Si Si1 0.363172 0.418093 0.620988
Si Si2 0.695905 0.492220 0.083132
Si Si3 0.222289 0.842782 0.569189
Si Si4 0.882854 0.749426 0.600497
Si Si5 0.800941 0.070792 0.949702
Si Si6 0.044671 0.317232 0.763855
Si Si7 0.542598 0.953040 0.837439
O O1 0.300972 0.511986 0.688344
O O2 0.582517 0.307135 0.666526
O O3 0.171975 0.588679 0.274410
O O4 0.412674 0.229875 0.905137
O O5 0.742898 0.322375 0.256497
O O6 0.899389 0.430886 0.074153
O O7 0.450159 0.706272 0.784212
O O8 0.194671 0.967879 0.203196
O O9 0.000000 0.000000 0.500000
O O10 0.921987 0.707385 0.432616
O O11 0.657678 0.854083 0.529170
O O12 0.825959 0.941314 0.308419
O O13 0.000000 0.000000 0.000000
O O14 0.000000 0.500000 0.500000
O O15 0.239238 0.144100 0.112111
O O16 0.500000 0.000000 0.000000
#
# Coordination Sequence:
#
# PCOD9004597 Si02
#       7
#     2   2   2   2   2   2   2
#     4   9  18  31  55  83 112 140 189 231 277 334
#     4  10  21  38  54  80 111 149 197 225 275 339
#     4  11  24  40  53  74 116 161 195 228 275 332
#     4   9  17  31  54  86 106 141 190 223 279 332
#     4  11  20  35  55  81 114 151 186 239 278 324
#     4   8  14  28  47  83 113 132 171 236 287 323
#     4   8  14  26  52  83 115 133 169 237 289 323
#
# _framework density 28.539852
#
# number of rings (size 3 to 8) (size 9 to 14) (size 15 to 20)
#    0.000    2.571    1.429    0.857    2.000    0.571 
#   10.286    0.000    0.000    0.000    0.000  126.000 
#    0.000    0.000    0.000    0.000    0.000    0.000 
#
# Total GULP energy -78150.954155 kJ/mol
# GULP energy per Si atom -5582.211011 kJ/mol
# Density = 2.847489 g / cm^3
# Si number density = 28.539852 Si / 1000 Ang^3
#
#
#
# Elastic Constant Matrix: (Units=GPa)
#
#
# Indices 1 2 3 4 5 6 
#
# 1 139.2587 43.2097 103.3663 -25.1891 74.1664 -5.4621
# 2 43.2097 116.0405 40.0345 -23.4247 9.8527 -14.2061
# 3 103.3663 40.0345 170.9956 -22.6068 67.5306 -21.5240
# 4 -25.1891 -23.4247 -22.6068 51.1930 -16.4298 13.9243
# 5 74.1664 9.8527 67.5306 -16.4298 95.6445 -21.7882
# 6 -5.4621 -14.2061 -21.5240 13.9243 -21.7882 55.3916
#
#
#
# Elastic Compliance Matrix: (Units=1/GPa)
#
#
# Indices 1 2 3 4 5 6 
#
# 1 0.020059 -0.004277 -0.007225 0.003084 -0.011092 -0.007065
# 2 -0.004277 0.011133 -0.000796 0.003113 0.003924 0.002885
# 3 -0.007225 -0.000796 0.011435 -0.000223 -0.001770 0.002887
# 4 0.003084 0.003113 -0.000223 0.023825 0.000445 -0.004798
# 5 -0.011092 0.003924 -0.001770 0.000445 0.021723 0.007658
# 6 -0.007065 0.002885 0.002887 -0.004798 0.007658 0.023437
#
#
# Mechanical properties :
#
#
# Convention : Reuss Voigt Hill
#
# Bulk Modulus (GPa) = 55.46109 88.83511 72.14810
# Shear Modulus (GPa) = 35.15677 56.42475 45.79076
#
# Velocity S-wave (km/s) = 3.51358 4.45123 4.00990
# Velocity P-wave (km/s) = 5.99461 7.59027 6.83913
#
# Compressibility (1/GPa) = 0.01803066
#
# Stress axis : x y z
#
# Youngs Moduli (GPa) = 49.85174 89.81946 87.45146
#
# Poissons Ratio (x) = 0.38418 0.63187
# Poissons Ratio (y) = 0.21323 0.06961
# Poissons Ratio (z) = 0.36020 0.07149
#
# Static dielectric constant tensor:
#      x y z
#    x 2.234910 0.000080 0.020800 
#    y 0.000080 2.324750 -0.089310 
#    z 0.020800 -0.089310 2.286730 
# 
# From -- ./inp_files/276233.got.cif
#   From: 2010.05.17/outbox.cif.g08.bks.cpg/sg2_139_cif.got.tgz:276233.got - 2010.06.03 11:33:40.
