data_PCOD9004145
_publ_section_title
;
Structure prediction by ZEFSAII (Michael W. Deem and Ramdas Pophale) SiO2 
 PCOD9004145
Probable space group: P -1
;
_chemical_formula_sum "Si O2"
_cell_formula_units_Z 11
_cell_length_a 14.933009
_cell_length_b 17.223019
_cell_length_c 8.777926
_cell_angle_alpha 39.193683
_cell_angle_beta 134.607130
_cell_angle_gamma 163.199771
_cell_volume 402.506897
_symmetry_space_group_name_H-M "P -1"
_symmetry_group_IT_number 2
_symmetry_cell_setting 'triclinic'
loop_
_space_group_symop_operation_xyz
x,y,z
-x,-y,-z
loop_
_atom_site_type_symbol
_atom_site_label
_atom_site_fract_x
_atom_site_fract_y
_atom_site_fract_z
Si Si1 0.352197 0.585171 0.475549
Si Si2 0.317795 0.207534 0.913164
Si Si3 0.166655 0.673460 0.270281
Si Si4 0.454882 0.849244 0.797074
Si Si5 0.060832 0.185357 0.456904
Si Si6 0.500000 0.500000 0.000000
O O1 0.372735 0.289291 0.029060
O O2 0.254251 0.625950 0.367603
O O3 0.150542 0.361351 0.429928
O O4 0.324209 0.455331 0.766842
O O5 0.045692 0.037344 0.749783
O O6 0.645349 0.552541 0.704318
O O7 0.328329 0.072008 0.101198
O O8 0.000000 0.500000 0.500000
O O9 0.909262 0.513443 0.106374
O O10 0.466508 0.024532 0.137595
O O11 0.500000 0.000000 0.500000
O O12 0.729310 0.914822 0.392512
#
# Coordination Sequence:
#
# PCOD9004145 Si02
#       6
#     2   2   2   2   2   1
#     4  11  23  43  65  99 130 171 220 264 325 382
#     4  10  23  44  67  98 129 173 217 264 331 381
#     4  10  21  38  62  91 127 165 208 265 315 373
#     4  10  21  37  64  93 127 165 210 266 315 376
#     4  10  25  43  67  93 137 172 209 269 325 394
#     4  10  22  38  70  96 124 164 220 276 310 376
#
# _framework density 27.328724999999999
#
# number of rings (size 3 to 8) (size 9 to 14) (size 15 to 20)
#    0.000    1.818    0.000    3.273    0.000   18.182 
#    0.000    5.455    0.000    0.000    0.000    0.000 
#    0.000    0.000    0.000    0.000    0.000    0.000 
#
# Total GULP energy -61529.332777 kJ/mol
# GULP energy per Si atom -5593.575707 kJ/mol
# Density = 2.726652 g / cm^3
# Si number density = 27.328725 Si / 1000 Ang^3
#
#
#
# Elastic Constant Matrix: (Units=GPa)
#
#
# Indices 1 2 3 4 5 6 
#
# 1 137.0134 26.3125 47.6049 9.4776 33.4192 -10.5583
# 2 26.3125 99.7865 17.4197 18.9337 21.7574 -27.8084
# 3 47.6049 17.4197 114.5330 12.0502 12.1331 -2.8418
# 4 9.4776 18.9337 12.0502 35.0276 4.5618 8.8166
# 5 33.4192 21.7574 12.1331 4.5618 66.3673 -12.5624
# 6 -10.5583 -27.8084 -2.8418 8.8166 -12.5624 59.4220
#
#
#
# Elastic Compliance Matrix: (Units=1/GPa)
#
#
# Indices 1 2 3 4 5 6 
#
# 1 0.009658 -0.000898 -0.003403 -0.000561 -0.003831 0.000406
# 2 -0.000898 0.014666 -0.000474 -0.009140 -0.002208 0.007571
# 3 -0.003403 -0.000474 0.010463 -0.002457 0.000138 0.000068
# 4 -0.000561 -0.009140 -0.002457 0.037142 -0.000749 -0.010163
# 5 -0.003831 -0.002208 0.000138 -0.000749 0.018172 0.002245
# 6 0.000406 0.007571 0.000068 -0.010163 0.002245 0.022430
#
#
# Mechanical properties :
#
#
# Convention : Reuss Voigt Hill
#
# Bulk Modulus (GPa) = 39.62243 59.33412 49.47828
# Shear Modulus (GPa) = 38.31621 49.49644 43.90633
#
# Velocity S-wave (km/s) = 3.74846 4.26038 4.01259
# Velocity P-wave (km/s) = 5.76754 6.77934 6.29381
#
# Compressibility (1/GPa) = 0.02523823
#
# Stress axis : x y z
#
# Youngs Moduli (GPa) = 103.54290 68.18367 95.57314
#
# Poissons Ratio (x) = 0.06120 0.32521
# Poissons Ratio (y) = 0.09294 0.04532
# Poissons Ratio (z) = 0.35233 0.03233
#
# Static dielectric constant tensor:
#      x y z
#    x 1.950660 -0.098350 0.140750 
#    y -0.098350 1.981500 0.155850 
#    z 0.140750 0.155850 1.983910 
# 
# From -- ./inp_files/456353.got.cif
#   From: 2010.05.17/outbox.cif.g08.bks.cpg/sg2_229_cif.got.tgz:456353.got - 2010.06.03 11:33:40.
