data_PCOD9004744
_publ_section_title
;
Structure prediction by ZEFSAII (Michael W. Deem and Ramdas Pophale) SiO2 
 PCOD9004744
Probable space group: P -1
;
_chemical_formula_sum "Si O2"
_cell_formula_units_Z 16
_cell_length_a 11.180533
_cell_length_b 13.619525
_cell_length_c 13.071829
_cell_angle_alpha 43.358755
_cell_angle_beta 32.307317
_cell_angle_gamma 63.839621
_cell_volume 643.453030
_symmetry_space_group_name_H-M "P -1"
_symmetry_group_IT_number 2
_symmetry_cell_setting 'triclinic'
loop_
_space_group_symop_operation_xyz
x,y,z
-x,-y,-z
loop_
_atom_site_type_symbol
_atom_site_label
_atom_site_fract_x
_atom_site_fract_y
_atom_site_fract_z
Si Si1 0.889652 0.807924 0.734864
Si Si2 0.687079 0.329818 0.774371
Si Si3 0.238441 0.925895 0.883654
Si Si4 0.257128 0.484250 0.814909
Si Si5 0.321845 0.130068 0.461317
Si Si6 0.696577 0.634736 0.554813
Si Si7 0.765276 0.016339 0.940127
Si Si8 0.303688 0.706024 0.434193
O O1 0.072614 0.744609 0.598815
O O2 0.614171 0.746373 0.932346
O O3 0.831900 0.708335 0.961049
O O4 0.000000 0.000000 0.500000
O O5 0.776372 0.500700 0.634893
O O6 0.760658 0.186162 0.831504
O O7 0.741674 0.377094 0.579292
O O8 0.454060 0.869068 0.766860
O O9 0.275015 0.017986 0.680927
O O10 0.285164 0.041580 0.860673
O O11 0.954940 0.779851 0.211668
O O12 0.465820 0.567804 0.690648
O O13 0.354190 0.589197 0.562477
O O14 0.000000 0.500000 0.000000
O O15 0.388611 0.301423 0.333351
O O16 0.043146 0.058306 0.668793
O O17 0.547459 0.884216 0.128766
#
# Coordination Sequence:
#
# PCOD9004744 Si02
#       8
#     2   2   2   2   2   2   2   2
#     4  10  21  38  58  87 130 167 208 257 311 373
#     4  11  25  39  62  93 129 175 208 258 325 383
#     4  10  22  40  65  91 119 164 211 265 325 373
#     4   9  20  37  62  94 123 169 209 253 313 374
#     4  10  22  41  66  91 120 163 212 267 323 376
#     4  10  21  41  62  89 132 158 206 265 314 374
#     4  11  22  39  62  92 125 166 218 262 316 379
#     4  11  22  40  64  90 134 171 216 260 312 383
#
# _framework density 24.865839999999999
#
# number of rings (size 3 to 8) (size 9 to 14) (size 15 to 20)
#    0.000    1.750    1.250    3.375    0.000    9.000 
#    0.000    7.500    0.000    0.000    0.000    0.000 
#    0.000    0.000    0.000    0.000    0.000    0.000 
#
# Total GULP energy -89364.883250 kJ/mol
# GULP energy per Si atom -5585.305203 kJ/mol
# Density = 2.480924 g / cm^3
# Si number density = 24.865840 Si / 1000 Ang^3
#
#
#
# Elastic Constant Matrix: (Units=GPa)
#
#
# Indices 1 2 3 4 5 6 
#
# 1 55.6364 14.2824 7.8364 3.0736 6.2511 -31.5892
# 2 14.2824 159.9650 43.7457 13.4458 -5.4801 -30.6165
# 3 7.8364 43.7457 44.6925 7.0989 5.7853 -8.5164
# 4 3.0736 13.4458 7.0989 58.5702 -20.7343 3.2693
# 5 6.2511 -5.4801 5.7853 -20.7343 23.5178 7.0288
# 6 -31.5892 -30.6165 -8.5164 3.2693 7.0288 44.6446
#
#
#
# Elastic Compliance Matrix: (Units=1/GPa)
#
#
# Indices 1 2 3 4 5 6 
#
# 1 0.053121 0.003180 0.008871 -0.026918 -0.054854 0.052067
# 2 0.003180 0.009873 -0.008355 -0.002062 -0.000600 0.007673
# 3 0.008871 -0.008355 0.037955 -0.014821 -0.030810 0.013724
# 4 -0.026918 -0.002062 -0.014821 0.043922 0.059778 -0.035915
# 5 -0.054854 -0.000600 -0.030810 0.059778 0.138551 -0.071293
# 6 0.052067 0.007673 0.013724 -0.035915 -0.071293 0.080974
#
#
# Mechanical properties :
#
#
# Convention : Reuss Voigt Hill
#
# Bulk Modulus (GPa) = 9.23002 43.55809 26.39406
# Shear Modulus (GPa) = 12.71885 38.30848 25.51367
#
# Velocity S-wave (km/s) = 2.26409 3.92931 3.20668
# Velocity P-wave (km/s) = 3.24881 6.17586 4.93437
#
# Compressibility (1/GPa) = 0.10834210
#
# Stress axis : x y z
#
# Youngs Moduli (GPa) = 18.82501 101.28177 26.34714
#
# Poissons Ratio (x) = -0.32206 -0.23374
# Poissons Ratio (y) = -0.05986 0.22012
# Poissons Ratio (z) = -0.16700 0.84617
#
# Static dielectric constant tensor:
#      x y z
#    x 2.129340 -0.040510 0.066800 
#    y -0.040510 1.981620 -0.027870 
#    z 0.066800 -0.027870 2.012220 
# 
# From -- ./inp_files/522251.got.cif
#   From: 2010.05.17/outbox.cif.g08.bks.cpg/sg2_262_cif.got.tgz:522251.got - 2010.06.03 11:33:40.
