data_PCOD9004353
_publ_section_title
;
Structure prediction by ZEFSAII (Michael W. Deem and Ramdas Pophale) SiO2 
 PCOD9004353
Probable space group: P -1
;
_chemical_formula_sum "Si O2"
_cell_formula_units_Z 16
_cell_length_a 20.987095
_cell_length_b 5.392391
_cell_length_c 10.681822
_cell_angle_alpha 84.462626
_cell_angle_beta 46.813784
_cell_angle_gamma 54.978692
_cell_volume 626.726967
_symmetry_space_group_name_H-M "P -1"
_symmetry_group_IT_number 2
_symmetry_cell_setting 'triclinic'
loop_
_space_group_symop_operation_xyz
x,y,z
-x,-y,-z
loop_
_atom_site_type_symbol
_atom_site_label
_atom_site_fract_x
_atom_site_fract_y
_atom_site_fract_z
Si Si1 0.699700 0.641033 0.315861
Si Si2 0.326601 0.900071 0.053246
Si Si3 0.057016 0.919861 0.113927
Si Si4 0.905489 0.911230 0.693359
Si Si5 0.644951 0.686162 0.831425
Si Si6 0.905230 0.826616 0.428081
Si Si7 0.516674 0.290514 0.368047
Si Si8 0.790667 0.689525 0.426463
O O1 0.604048 0.630145 0.495791
O O2 0.724597 0.805723 0.376728
O O3 0.629924 0.886143 0.276148
O O4 0.832403 0.269412 0.120787
O O5 0.438241 0.663442 0.818397
O O6 0.339118 0.636286 0.140136
O O7 0.198686 0.090143 0.149961
O O8 0.321856 0.176320 0.112770
O O9 0.002743 0.751593 0.206923
O O10 0.111406 0.869894 0.180344
O O11 0.933448 0.324234 0.235181
O O12 0.896129 0.018952 0.556166
O O13 0.037070 0.528344 0.563039
O O14 0.719555 0.632460 0.612461
O O15 0.500000 0.000000 0.000000
O O16 0.798151 0.932387 0.480413
O O17 0.500000 0.500000 0.500000
#
# Coordination Sequence:
#
# PCOD9004353 Si02
#       8
#     2   2   2   2   2   2   2   2
#     4  11  26  47  72 105 150 192 257 312 374 460
#     4  12  26  46  80 107 149 193 254 314 384 448
#     4  11  23  41  70 103 147 196 251 306 380 446
#     4  10  21  37  66 102 142 188 242 308 360 447
#     4  12  28  48  76 113 151 198 249 317 385 457
#     4  10  21  39  64 103 143 191 242 299 375 442
#     4  11  27  47  74 106 140 201 255 316 376 443
#     4  11  25  45  70 107 153 198 244 307 387 458
#
# _framework density 25.529461000000001
#
# number of rings (size 3 to 8) (size 9 to 14) (size 15 to 20)
#    0.000    1.000    1.250    4.125    8.750    2.500 
#    0.000    0.000    0.000    0.000    0.000    0.000 
#    0.000    0.000    0.000    0.000    0.000    0.000 
#
# Total GULP energy -89485.440346 kJ/mol
# GULP energy per Si atom -5592.840022 kJ/mol
# Density = 2.547136 g / cm^3
# Si number density = 25.529461 Si / 1000 Ang^3
#
#
#
# Elastic Constant Matrix: (Units=GPa)
#
#
# Indices 1 2 3 4 5 6 
#
# 1 187.5308 23.2384 54.3667 -6.7944 -14.3386 12.8518
# 2 23.2384 51.4307 8.1579 6.9353 -5.3250 5.4086
# 3 54.3667 8.1579 147.2301 -1.5490 -13.8059 8.7069
# 4 -6.7944 6.9353 -1.5490 30.3059 6.9318 -2.5049
# 5 -14.3386 -5.3250 -13.8059 6.9318 38.4616 -0.3258
# 6 12.8518 5.4086 8.7069 -2.5049 -0.3258 33.7403
#
#
#
# Elastic Compliance Matrix: (Units=1/GPa)
#
#
# Indices 1 2 3 4 5 6 
#
# 1 0.006477 -0.002561 -0.002054 0.001583 0.001026 -0.001399
# 2 -0.002561 0.022143 0.000143 -0.006651 0.003335 -0.003073
# 3 -0.002054 0.000143 0.007815 -0.000698 0.002174 -0.001288
# 4 0.001583 -0.006651 -0.000698 0.036753 -0.007177 0.003302
# 5 0.001026 0.003335 0.002174 -0.007177 0.028903 -0.001740
# 6 -0.001399 -0.003073 -0.001288 0.003302 -0.001740 0.031224
#
#
# Mechanical properties :
#
#
# Convention : Reuss Voigt Hill
#
# Bulk Modulus (GPa) = 36.37445 61.96863 49.17154
# Shear Modulus (GPa) = 33.01989 40.53012 36.77501
#
# Velocity S-wave (km/s) = 3.60029 3.98877 3.79950
# Velocity P-wave (km/s) = 5.61799 6.74832 6.20893
#
# Compressibility (1/GPa) = 0.02749183
#
# Stress axis : x y z
#
# Youngs Moduli (GPa) = 154.39279 45.16037 127.95196
#
# Poissons Ratio (x) = 0.11565 0.26285
# Poissons Ratio (y) = 0.39538 -0.01832
# Poissons Ratio (z) = 0.31716 -0.00647
#
# Static dielectric constant tensor:
#      x y z
#    x 2.010910 -0.018530 -0.009150 
#    y -0.018530 2.063330 0.076540 
#    z -0.009150 0.076540 2.044570 
# 
# From -- ./inp_files/468367.got.cif
#   From: 2010.05.17/outbox.cif.g08.bks.cpg/sg2_235_cif.got.tgz:468367.got - 2010.06.03 11:33:40.
