data_PCOD9004492
_publ_section_title
;
Structure prediction by ZEFSAII (Michael W. Deem and Ramdas Pophale) SiO2 
 PCOD9004492
Probable space group: P -1
;
_chemical_formula_sum "Si O2"
_cell_formula_units_Z 16
_cell_length_a 12.454069
_cell_length_b 12.198119
_cell_length_c 9.415941
_cell_angle_alpha 88.933716
_cell_angle_beta 59.377756
_cell_angle_gamma 44.969701
_cell_volume 719.600612
_symmetry_space_group_name_H-M "P -1"
_symmetry_group_IT_number 2
_symmetry_cell_setting 'triclinic'
loop_
_space_group_symop_operation_xyz
x,y,z
-x,-y,-z
loop_
_atom_site_type_symbol
_atom_site_label
_atom_site_fract_x
_atom_site_fract_y
_atom_site_fract_z
Si Si1 0.604037 0.698599 0.215287
Si Si2 0.732024 0.764641 0.389754
Si Si3 0.043894 0.646389 0.533242
Si Si4 0.865135 0.335097 0.220957
Si Si5 0.692855 0.995180 0.232789
Si Si6 0.811306 0.618077 0.786152
Si Si7 0.834765 0.108957 0.233449
Si Si8 0.098612 0.028008 0.523463
O O1 0.663848 0.747716 0.292668
O O2 0.740144 0.496689 0.184644
O O3 0.355856 0.844843 0.367381
O O4 0.664823 0.698763 0.017640
O O5 0.765458 0.866509 0.318723
O O6 0.951814 0.564987 0.303964
O O7 0.544213 0.883328 0.628238
O O8 0.831135 0.725648 0.706693
O O9 0.981098 0.801456 0.490219
O O10 0.141780 0.606450 0.620631
O O11 0.195884 0.465925 0.332857
O O12 0.772568 0.278006 0.301487
O O13 0.116703 0.149657 0.006496
O O14 0.664165 0.141605 0.295421
O O15 0.963931 0.957718 0.275252
O O16 0.000000 0.000000 0.000000
O O17 0.000000 0.000000 0.500000
#
# Coordination Sequence:
#
# PCOD9004492 Si02
#       8
#     2   2   2   2   2   2   2   2
#     4  12  25  43  75 100 134 183 234 281 334 408
#     4  11  20  39  70 104 133 175 225 288 324 411
#     4  11  25  45  68  97 151 178 218 286 347 407
#     4  11  22  45  70 100 133 184 233 283 324 412
#     4  10  21  37  68 103 132 170 231 279 338 386
#     4  11  24  45  67 104 142 181 224 282 346 404
#     4  10  22  43  71  97 129 178 235 278 325 405
#     4  12  26  49  67  99 140 179 225 285 350 402
#
# _framework density 22.234556000000001
#
# number of rings (size 3 to 8) (size 9 to 14) (size 15 to 20)
#    0.000    1.000    5.000    1.875    3.500    1.000 
#    6.750    1.875    0.000    0.000    0.000    0.000 
#    0.000    0.000    0.000    0.000    0.000    0.000 
#
# Total GULP energy -89350.068638 kJ/mol
# GULP energy per Si atom -5584.379290 kJ/mol
# Density = 2.218395 g / cm^3
# Si number density = 22.234556 Si / 1000 Ang^3
#
#
#
# Elastic Constant Matrix: (Units=GPa)
#
#
# Indices 1 2 3 4 5 6 
#
# 1 98.9802 34.0585 37.5520 -6.0106 9.0884 22.5617
# 2 34.0585 95.3814 34.3697 -27.2667 -3.6038 32.6682
# 3 37.5520 34.3697 109.3651 -25.4224 4.8830 -2.5080
# 4 -6.0106 -27.2667 -25.4224 38.1982 1.1094 -7.3151
# 5 9.0884 -3.6038 4.8830 1.1094 29.4868 -2.9908
# 6 22.5617 32.6682 -2.5080 -7.3151 -2.9908 44.7157
#
#
#
# Elastic Compliance Matrix: (Units=1/GPa)
#
#
# Indices 1 2 3 4 5 6 
#
# 1 0.014606 -0.002272 -0.005184 -0.003975 -0.004476 -0.006950
# 2 -0.002272 0.019022 -0.003553 0.008612 0.002133 -0.011398
# 3 -0.005184 -0.003553 0.013934 0.007310 -0.000694 0.007142
# 4 -0.003975 0.008612 0.007310 0.036984 -0.000105 0.002168
# 5 -0.004476 0.002133 -0.000694 -0.000105 0.035982 0.003051
# 6 -0.006950 -0.011398 0.007142 0.002168 0.003051 0.035157
#
#
# Mechanical properties :
#
#
# Convention : Reuss Voigt Hill
#
# Bulk Modulus (GPa) = 39.14931 57.29858 48.22395
# Shear Modulus (GPa) = 26.85018 35.66323 31.25671
#
# Velocity S-wave (km/s) = 3.47881 4.00929 3.75343
# Velocity P-wave (km/s) = 5.81221 6.87448 6.36554
#
# Compressibility (1/GPa) = 0.02554323
#
# Stress axis : x y z
#
# Youngs Moduli (GPa) = 68.46673 52.57035 71.76511
#
# Poissons Ratio (x) = 0.11946 0.37206
# Poissons Ratio (y) = 0.15558 0.25495
# Poissons Ratio (z) = 0.35496 0.18676
#
# Static dielectric constant tensor:
#      x y z
#    x 1.847400 0.067670 0.013920 
#    y 0.067670 1.815940 -0.017490 
#    z 0.013920 -0.017490 1.850100 
# 
# From -- ./inp_files/262501.got.cif
#   From: 2010.05.17/outbox.cif.g08.bks.cpg/sg2_132_cif.got.tgz:262501.got - 2010.06.03 11:33:40.
