data_PCOD9004139
_publ_section_title
;
Structure prediction by ZEFSAII (Michael W. Deem and Ramdas Pophale) SiO2 
 PCOD9004139
Probable space group: P -1
;
_chemical_formula_sum "Si O2"
_cell_formula_units_Z 16
_cell_length_a 6.377854
_cell_length_b 13.051925
_cell_length_c 11.072109
_cell_angle_alpha 84.529824
_cell_angle_beta 114.498386
_cell_angle_gamma 115.566046
_cell_volume 752.647923
_symmetry_space_group_name_H-M "P -1"
_symmetry_group_IT_number 2
_symmetry_cell_setting 'triclinic'
loop_
_space_group_symop_operation_xyz
x,y,z
-x,-y,-z
loop_
_atom_site_type_symbol
_atom_site_label
_atom_site_fract_x
_atom_site_fract_y
_atom_site_fract_z
Si Si1 0.590248 0.639696 0.574899
Si Si2 0.598556 0.461406 0.197225
Si Si3 0.471450 0.157636 0.808459
Si Si4 0.869564 0.051818 0.630911
Si Si5 0.669190 0.691652 0.077865
Si Si6 0.141815 0.932583 0.107424
Si Si7 0.464861 0.832358 0.449964
Si Si8 0.916182 0.538665 0.600526
O O1 0.537116 0.583777 0.701420
O O2 0.546555 0.752020 0.558074
O O3 0.853971 0.647510 0.582848
O O4 0.365191 0.561807 0.438114
O O5 0.670084 0.594572 0.179501
O O6 0.865296 0.451679 0.258673
O O7 0.430904 0.379772 0.060453
O O8 0.499029 0.252294 0.903629
O O9 0.619372 0.082466 0.891321
O O10 0.573783 0.205975 0.694258
O O11 0.167843 0.088394 0.716524
O O12 0.760772 0.010439 0.744716
O O13 0.788293 0.154187 0.574029
O O14 0.707850 0.955099 0.508710
O O15 0.930336 0.802772 0.097597
O O16 0.000000 0.000000 0.000000
O O17 0.000000 0.500000 0.500000
#
# Coordination Sequence:
#
# PCOD9004139 Si02
#       8
#     2   2   2   2   2   2   2   2
#     4  10  22  36  63  92 122 165 202 249 314 371
#     4  10  23  42  60  90 127 163 209 255 306 367
#     4  10  22  39  65  90 119 167 204 252 317 374
#     4   9  21  40  59  95 125 155 205 258 311 373
#     4  10  24  41  63  89 123 166 209 258 307 367
#     4  10  23  42  64  88 125 163 207 262 309 369
#     4  10  21  37  64  93 124 159 200 258 313 368
#     4   9  21  38  57  90 125 157 203 255 300 366
#
# _framework density 21.258277
#
# number of rings (size 3 to 8) (size 9 to 14) (size 15 to 20)
#    0.000    2.250    0.000    0.375   12.250    4.000 
#    2.250    2.500    0.000    0.000    0.000    0.000 
#    0.000    0.000    0.000    0.000    0.000    0.000 
#
# Total GULP energy -89096.935748 kJ/mol
# GULP energy per Si atom -5568.558484 kJ/mol
# Density = 2.120989 g / cm^3
# Si number density = 21.258277 Si / 1000 Ang^3
#
#
#
# Elastic Constant Matrix: (Units=GPa)
#
#
# Indices 1 2 3 4 5 6 
#
# 1 107.0606 52.4342 39.3800 -23.5510 22.7751 -30.8773
# 2 52.4342 85.4249 39.5978 -15.1784 4.4199 -17.8534
# 3 39.3800 39.5978 76.4602 -16.5801 4.0011 -13.7407
# 4 -23.5510 -15.1784 -16.5801 37.2058 -10.9982 7.6484
# 5 22.7751 4.4199 4.0011 -10.9982 38.1615 -7.4186
# 6 -30.8773 -17.8534 -13.7407 7.6484 -7.4186 29.9930
#
#
#
# Elastic Compliance Matrix: (Units=1/GPa)
#
#
# Indices 1 2 3 4 5 6 
#
# 1 0.019813 -0.007174 -0.003183 0.003580 -0.007305 0.011948
# 2 -0.007174 0.019275 -0.005830 0.001340 0.003420 0.001921
# 3 -0.003183 -0.005830 0.018799 0.004343 0.002104 0.001278
# 4 0.003580 0.001340 0.004343 0.033753 0.006897 -0.000428
# 5 -0.007305 0.003420 0.002104 0.006897 0.032266 0.001701
# 6 0.011948 0.001921 0.001278 -0.000428 0.001701 0.047900
#
#
# Mechanical properties :
#
#
# Convention : Reuss Voigt Hill
#
# Bulk Modulus (GPa) = 39.19862 59.08552 49.14207
# Shear Modulus (GPa) = 23.50898 30.24098 26.87498
#
# Velocity S-wave (km/s) = 3.32908 3.77576 3.55943
# Velocity P-wave (km/s) = 5.76682 6.84565 6.32927
#
# Compressibility (1/GPa) = 0.02551110
#
# Stress axis : x y z
#
# Youngs Moduli (GPa) = 50.47287 51.88039 53.19472
#
# Poissons Ratio (x) = 0.37222 0.16931
# Poissons Ratio (y) = 0.36212 0.31015
# Poissons Ratio (z) = 0.16065 0.30249
#
# Static dielectric constant tensor:
#      x y z
#    x 1.856790 -0.037580 0.007970 
#    y -0.037580 1.848700 -0.033160 
#    z 0.007970 -0.033160 1.778510 
# 
# From -- ./inp_files/364392.got.cif
#   From: 2010.05.17/outbox.cif.g08.bks.cpg/sg2_183_cif.got.tgz:364392.got - 2010.06.03 11:33:40.
