data_PCOD9004642
_publ_section_title
;
Structure prediction by ZEFSAII (Michael W. Deem and Ramdas Pophale) SiO2 
 PCOD9004642
Probable space group: P -1
;
_chemical_formula_sum "Si O2"
_cell_formula_units_Z 16
_cell_length_a 19.987866
_cell_length_b 19.514853
_cell_length_c 5.347734
_cell_angle_alpha 114.216570
_cell_angle_beta 70.048169
_cell_angle_gamma 160.715717
_cell_volume 620.919383
_symmetry_space_group_name_H-M "P -1"
_symmetry_group_IT_number 2
_symmetry_cell_setting 'triclinic'
loop_
_space_group_symop_operation_xyz
x,y,z
-x,-y,-z
loop_
_atom_site_type_symbol
_atom_site_label
_atom_site_fract_x
_atom_site_fract_y
_atom_site_fract_z
Si Si1 0.751253 0.216084 0.283416
Si Si2 0.864663 0.574679 0.253974
Si Si3 0.696258 0.629373 0.220233
Si Si4 0.684139 0.989173 0.173434
Si Si5 0.653272 0.916168 0.602996
Si Si6 0.256118 0.714069 0.104014
Si Si7 0.914515 0.706299 0.887744
Si Si8 0.565068 0.657322 0.374335
O O1 0.800528 0.182565 0.279049
O O2 0.812837 0.335900 0.599578
O O3 0.502453 0.966278 0.199069
O O4 0.811974 0.296215 0.043804
O O5 0.816564 0.581153 0.563565
O O6 0.115367 0.823793 0.305832
O O7 0.804260 0.428230 0.121996
O O8 0.819623 0.568235 0.035972
O O9 0.723288 0.746044 0.359326
O O10 0.597293 0.508697 0.434619
O O11 0.881129 0.759573 0.087246
O O12 0.535136 0.455469 0.939205
O O13 0.560829 0.861842 0.394079
O O14 0.848102 0.083486 0.115865
O O15 0.554224 0.847271 0.879347
O O16 0.657480 0.831227 0.490914
#
# Coordination Sequence:
#
# PCOD9004642 Si02
#       8
#     2   2   2   2   2   2   2   2
#     4  10  21  38  59  84 115 152 194 242 294 347
#     4  10  21  38  58  85 120 154 195 239 291 354
#     4  10  21  38  61  88 118 154 196 242 291 345
#     4  10  21  38  58  85 120 154 195 239 291 354
#     4  10  21  38  56  85 120 154 194 237 292 350
#     4  10  21  38  59  84 115 152 194 242 294 347
#     4  10  21  38  56  85 120 154 194 237 292 350
#     4  10  21  38  61  88 118 154 196 242 291 345
#
# _framework density 25.768239000000001
#
# number of rings (size 3 to 8) (size 9 to 14) (size 15 to 20)
#    0.000    2.000    0.000    3.000    0.000    3.000 
#    0.000   20.000    0.000    0.000    0.000    0.000 
#    0.000    0.000    0.000    0.000    0.000    0.000 
#
# Total GULP energy -89522.846979 kJ/mol
# GULP energy per Si atom -5595.177936 kJ/mol
# Density = 2.570959 g / cm^3
# Si number density = 25.768239 Si / 1000 Ang^3
#
#
#
# Elastic Constant Matrix: (Units=GPa)
#
#
# Indices 1 2 3 4 5 6 
#
# 1 125.9813 16.4772 42.8789 -0.1433 -8.6685 -20.3148
# 2 16.4772 69.8061 20.5996 -12.4115 4.9489 -16.2349
# 3 42.8789 20.5996 175.9885 -14.8428 16.8248 -31.0641
# 4 -0.1433 -12.4115 -14.8428 46.1975 -10.4731 1.4496
# 5 -8.6685 4.9489 16.8248 -10.4731 47.9769 -8.6526
# 6 -20.3148 -16.2349 -31.0641 1.4496 -8.6526 44.2981
#
#
#
# Elastic Compliance Matrix: (Units=1/GPa)
#
#
# Indices 1 2 3 4 5 6 
#
# 1 0.009464 -0.001206 -0.001924 -0.000331 0.003005 0.003146
# 2 -0.001206 0.016668 -0.000399 0.004195 0.000047 0.005147
# 3 -0.001924 -0.000399 0.007141 0.001660 -0.001804 0.003572
# 4 -0.000331 0.004195 0.001660 0.024289 0.004710 0.002675
# 5 0.003005 0.000047 -0.001804 0.004710 0.023879 0.004640
# 6 0.003146 0.005147 0.003572 0.002675 0.004640 0.029227
#
#
# Mechanical properties :
#
#
# Convention : Reuss Voigt Hill
#
# Bulk Modulus (GPa) = 38.14904 59.07636 48.61270
# Shear Modulus (GPa) = 39.53652 47.14918 43.34285
#
# Velocity S-wave (km/s) = 3.92128 4.28219 4.10570
# Velocity P-wave (km/s) = 5.94464 6.88660 6.43289
#
# Compressibility (1/GPa) = 0.02621298
#
# Stress axis : x y z
#
# Youngs Moduli (GPa) = 105.66177 59.99680 140.04085
#
# Poissons Ratio (x) = 0.07236 0.26951
# Poissons Ratio (y) = 0.12744 0.05590
# Poissons Ratio (z) = 0.20334 0.02395
#
# Static dielectric constant tensor:
#      x y z
#    x 2.055170 0.074910 0.043850 
#    y 0.074910 2.085420 -0.020570 
#    z 0.043850 -0.020570 2.105120 
# 
# From -- ./inp_files/111530.got.cif
#   From: 2010.05.17/outbox.cif.g08.bks.cpg/sg2_56_cif.got.tgz:111530.got - 2010.06.03 11:33:40.
