data_PCOD9004067
_publ_section_title
;
Structure prediction by ZEFSAII (Michael W. Deem and Ramdas Pophale) SiO2 
 PCOD9004067
Probable space group: P -1
;
_chemical_formula_sum "Si O2"
_cell_formula_units_Z 16
_cell_length_a 8.506699
_cell_length_b 15.265794
_cell_length_c 9.644539
_cell_angle_alpha 130.611543
_cell_angle_beta 85.093722
_cell_angle_gamma 60.307593
_cell_volume 648.937096
_symmetry_space_group_name_H-M "P -1"
_symmetry_group_IT_number 2
_symmetry_cell_setting 'triclinic'
loop_
_space_group_symop_operation_xyz
x,y,z
-x,-y,-z
loop_
_atom_site_type_symbol
_atom_site_label
_atom_site_fract_x
_atom_site_fract_y
_atom_site_fract_z
Si Si1 0.571523 0.348009 0.912841
Si Si2 0.415351 0.862270 0.496890
Si Si3 0.037753 0.924455 0.764193
Si Si4 0.500891 0.340982 0.215547
Si Si5 0.862915 0.305938 0.265465
Si Si6 0.075989 0.121466 0.557702
Si Si7 0.146707 0.359540 0.226396
Si Si8 0.925751 0.617162 0.255080
O O1 0.487741 0.286776 0.766500
O O2 0.848440 0.192962 0.723458
O O3 0.500000 0.500000 0.000000
O O4 0.465813 0.402607 0.127294
O O5 0.245805 0.888609 0.645254
O O6 0.648092 0.779512 0.467622
O O7 0.273398 0.015502 0.553394
O O8 0.092363 0.767024 0.659836
O O9 0.887803 0.971441 0.684418
O O10 0.000000 0.000000 0.000000
O O11 0.755554 0.256800 0.135861
O O12 0.341463 0.491006 0.494041
O O13 0.410568 0.257217 0.132389
O O14 0.076805 0.261692 0.137226
O O15 0.012251 0.284343 0.683792
O O16 0.000000 0.500000 0.500000
O O17 0.048115 0.480361 0.226794
O O18 0.000000 0.500000 0.000000
#
# Coordination Sequence:
#
# PCOD9004067 Si02
#       8
#     2   2   2   2   2   2   2   2
#     4  11  21  38  69  98 134 181 242 289 360 416
#     4  11  26  44  69 102 142 189 236 298 363 436
#     4  11  25  45  70  98 135 191 245 282 353 443
#     4  10  21  37  64 100 134 178 223 296 368 416
#     4  10  23  37  67  99 139 174 238 296 362 421
#     4  11  25  47  68 100 149 184 237 300 358 438
#     4  10  22  41  62 100 142 173 222 301 358 417
#     4  12  26  45  72 108 139 184 239 301 368 440
#
# _framework density 24.655702999999999
#
# number of rings (size 3 to 8) (size 9 to 14) (size 15 to 20)
#    0.000    1.250    0.000    7.125   12.250    0.000 
#    0.000    1.875    0.000    0.000    0.000    0.000 
#    0.000    0.000    0.000    0.000    0.000    0.000 
#
# Total GULP energy -89145.914593 kJ/mol
# GULP energy per Si atom -5571.619662 kJ/mol
# Density = 2.459959 g / cm^3
# Si number density = 24.655703 Si / 1000 Ang^3
#
#
#
# Elastic Constant Matrix: (Units=GPa)
#
#
# Indices 1 2 3 4 5 6 
#
# 1 179.3847 51.1853 22.2548 -11.8748 -25.5622 5.3607
# 2 51.1853 114.9411 31.6320 -24.0670 -0.9687 16.8147
# 3 22.2548 31.6320 98.7137 -21.6234 3.6286 -5.1289
# 4 -11.8748 -24.0670 -21.6234 37.5266 -2.9596 -4.4252
# 5 -25.5622 -0.9687 3.6286 -2.9596 37.6363 4.8785
# 6 5.3607 16.8147 -5.1289 -4.4252 4.8785 29.2710
#
#
#
# Elastic Compliance Matrix: (Units=1/GPa)
#
#
# Indices 1 2 3 4 5 6 
#
# 1 0.007235 -0.002766 -0.000897 0.000316 0.005043 -0.000686
# 2 -0.002766 0.012648 -0.002685 0.004920 -0.000068 -0.006474
# 3 -0.000897 -0.002685 0.012816 0.005823 -0.002128 0.005187
# 4 0.000316 0.004920 0.005823 0.033762 0.002059 0.002897
# 5 0.005043 -0.000068 -0.002128 0.002059 0.031156 -0.006139
# 6 -0.000686 -0.006474 0.005187 0.002897 -0.006139 0.040378
#
#
# Mechanical properties :
#
#
# Convention : Reuss Voigt Hill
#
# Bulk Modulus (GPa) = 49.99366 67.02042 58.50704
# Shear Modulus (GPa) = 31.77434 40.08462 35.92948
#
# Velocity S-wave (km/s) = 3.59377 4.03646 3.82153
# Velocity P-wave (km/s) = 6.12707 6.99754 6.57672
#
# Compressibility (1/GPa) = 0.02000254
#
# Stress axis : x y z
#
# Youngs Moduli (GPa) = 138.21330 79.06593 78.02633
#
# Poissons Ratio (x) = 0.21872 0.06996
# Poissons Ratio (y) = 0.38234 0.20953
# Poissons Ratio (z) = 0.12392 0.21232
#
# Static dielectric constant tensor:
#      x y z
#    x 2.006100 0.032270 0.011840 
#    y 0.032270 1.883780 0.064440 
#    z 0.011840 0.064440 1.936850 
# 
# From -- ./inp_files/208671.got.cif
#   From: 2010.05.17/outbox.cif.g08.bks.cpg/sg2_105_cif.got.tgz:208671.got - 2010.06.03 11:33:40.
