data_PCOD9004664
_publ_section_title
;
Structure prediction by ZEFSAII (Michael W. Deem and Ramdas Pophale) SiO2 
 PCOD9004664
Probable space group: P -1
;
_chemical_formula_sum "Si O2"
_cell_formula_units_Z 16
_cell_length_a 15.145085
_cell_length_b 9.559294
_cell_length_c 7.682159
_cell_angle_alpha 47.701711
_cell_angle_beta 86.684678
_cell_angle_gamma 58.310527
_cell_volume 617.917519
_symmetry_space_group_name_H-M "P -1"
_symmetry_group_IT_number 2
_symmetry_cell_setting 'triclinic'
loop_
_space_group_symop_operation_xyz
x,y,z
-x,-y,-z
loop_
_atom_site_type_symbol
_atom_site_label
_atom_site_fract_x
_atom_site_fract_y
_atom_site_fract_z
Si Si1 0.256374 0.575744 0.049257
Si Si2 0.191917 0.076700 0.462170
Si Si3 0.001750 0.848021 0.780717
Si Si4 0.460970 0.272022 0.018337
Si Si5 0.358360 0.108950 0.911077
Si Si6 0.808888 0.186716 0.781333
Si Si7 0.619568 0.249006 0.525099
Si Si8 0.136779 0.287766 0.652509
O O1 0.382276 0.353018 0.132424
O O2 0.139844 0.617940 0.982246
O O3 0.225943 0.823231 0.754819
O O4 0.248003 0.604974 0.235598
O O5 0.083462 0.198474 0.239331
O O6 0.163735 0.247900 0.480990
O O7 0.307262 0.976591 0.430796
O O8 0.933324 0.043413 0.788154
O O9 0.000000 0.000000 0.500000
O O10 0.466800 0.488474 0.787652
O O11 0.590010 0.003711 0.193820
O O12 0.396879 0.237357 0.904352
O O13 0.407939 0.859796 0.228136
O O14 0.218109 0.308818 0.739902
O O15 0.713396 0.264479 0.582864
O O16 0.831227 0.960907 0.068726
O O17 0.000000 0.500000 0.500000
#
# Coordination Sequence:
#
# PCOD9004664 Si02
#       8
#     2   2   2   2   2   2   2   2
#     4   9  17  31  54  83 119 150 197 242 296 350
#     4   8  17  33  54  81 111 151 202 236 293 365
#     4   9  16  29  53  82 118 150 188 250 289 348
#     4  10  21  39  62  89 116 162 202 243 303 354
#     4  10  22  40  61  87 122 154 206 252 288 362
#     4   9  18  35  54  88 117 154 205 240 292 373
#     4   9  18  39  63  83 118 157 198 248 303 350
#     4  10  21  38  57  82 122 161 194 250 309 347
#
# _framework density 25.893424
#
# number of rings (size 3 to 8) (size 9 to 14) (size 15 to 20)
#    0.000    2.750    0.000    1.500    1.750    0.000 
#    9.000   13.125    0.000    3.000    0.000    0.000 
#    0.000    0.000    0.000    0.000    0.000    0.000 
#
# Total GULP energy -89321.291895 kJ/mol
# GULP energy per Si atom -5582.580743 kJ/mol
# Density = 2.583449 g / cm^3
# Si number density = 25.893424 Si / 1000 Ang^3
#
#
#
# Elastic Constant Matrix: (Units=GPa)
#
#
# Indices 1 2 3 4 5 6 
#
# 1 71.3161 21.3324 8.5339 0.6215 -0.5916 -10.9707
# 2 21.3324 132.4420 17.2890 28.8365 -1.2944 -32.1544
# 3 8.5339 17.2890 65.5211 -7.0261 -19.9780 -7.2890
# 4 0.6215 28.8365 -7.0261 30.2740 -3.8808 -4.8758
# 5 -0.5916 -1.2944 -19.9780 -3.8808 30.3425 9.4545
# 6 -10.9707 -32.1544 -7.2890 -4.8758 9.4545 37.8004
#
#
#
# Elastic Compliance Matrix: (Units=1/GPa)
#
#
# Indices 1 2 3 4 5 6 
#
# 1 0.015200 -0.001799 -0.001485 0.001365 -0.001569 0.003163
# 2 -0.001799 0.014482 -0.006741 -0.014740 -0.009131 0.010879
# 3 -0.001485 -0.006741 0.023849 0.013646 0.018514 -0.004437
# 4 0.001365 -0.014740 0.013646 0.051254 0.017180 -0.007197
# 5 -0.001569 -0.009131 0.018514 0.017180 0.051714 -0.015371
# 6 0.003163 0.010879 -0.004437 -0.007197 -0.015371 0.038688
#
#
# Mechanical properties :
#
#
# Convention : Reuss Voigt Hill
#
# Bulk Modulus (GPa) = 29.86913 40.39887 35.13400
# Shear Modulus (GPa) = 22.08514 34.49165 28.28840
#
# Velocity S-wave (km/s) = 2.92366 3.65370 3.30887
# Velocity P-wave (km/s) = 4.79140 5.78232 5.31002
#
# Compressibility (1/GPa) = 0.03347938
#
# Stress axis : x y z
#
# Youngs Moduli (GPa) = 65.79119 69.05335 41.92985
#
# Poissons Ratio (x) = 0.12422 0.06228
# Poissons Ratio (y) = 0.11835 0.28267
# Poissons Ratio (z) = 0.09772 0.46552
#
# Static dielectric constant tensor:
#      x y z
#    x 2.094990 -0.019470 -0.000950 
#    y -0.019470 2.081890 -0.013820 
#    z -0.000950 -0.013820 1.983890 
# 
# From -- ./inp_files/327120.got.cif
#   From: 2010.05.17/outbox.cif.g08.bks.cpg/sg2_164_cif.got.tgz:327120.got - 2010.06.03 11:33:40.
