data_PCOD9004544
_publ_section_title
;
Structure prediction by ZEFSAII (Michael W. Deem and Ramdas Pophale) SiO2 
 PCOD9004544
Probable space group: P -1
;
_chemical_formula_sum "Si O2"
_cell_formula_units_Z 12
_cell_length_a 17.255666
_cell_length_b 11.980957
_cell_length_c 8.760659
_cell_angle_alpha 59.635015
_cell_angle_beta 118.706318
_cell_angle_gamma 157.273098
_cell_volume 603.203033
_symmetry_space_group_name_H-M "P -1"
_symmetry_group_IT_number 2
_symmetry_cell_setting 'triclinic'
loop_
_space_group_symop_operation_xyz
x,y,z
-x,-y,-z
loop_
_atom_site_type_symbol
_atom_site_label
_atom_site_fract_x
_atom_site_fract_y
_atom_site_fract_z
Si Si1 0.668613 0.372379 0.974840
Si Si2 0.896102 0.871781 0.655820
Si Si3 0.529407 0.579812 0.737995
Si Si4 0.703529 0.891472 0.397851
Si Si5 0.807450 0.279372 0.078424
Si Si6 0.252209 0.318091 0.917441
O O1 0.726728 0.543319 0.768791
O O2 0.425958 0.033864 0.987262
O O3 0.798467 0.412430 0.046108
O O4 0.724886 0.519740 0.081200
O O5 0.824597 0.925418 0.546092
O O6 0.000000 0.000000 0.500000
O O7 0.052864 0.052649 0.814154
O O8 0.562820 0.718739 0.531952
O O9 0.397222 0.292479 0.728841
O O10 0.420943 0.513350 0.815541
O O11 0.712982 0.748960 0.878446
O O12 0.813563 0.169032 0.279545
O O13 0.000000 0.500000 0.000000
#
# Coordination Sequence:
#
# PCOD9004544 Si02
#       6
#     2   2   2   2   2   2
#     4  11  24  45  68  98 136 177 225 275 333 410
#     4  12  23  39  71 102 129 169 227 283 336 394
#     4  10  21  37  69  97 132 169 220 287 333 386
#     4  11  20  42  63  99 129 169 227 275 326 391
#     4  11  25  44  70  93 137 187 223 264 339 409
#     4  11  22  39  67 105 133 167 218 284 348 388
#
# _framework density 19.893798
#
# number of rings (size 3 to 8) (size 9 to 14) (size 15 to 20)
#    0.000    1.000    5.000    2.500    0.000    0.000 
#    0.000    1.667    0.000    0.000    0.000    0.000 
#    0.000    0.000    0.000    0.000    0.000    0.000 
#
# Total GULP energy -66812.385568 kJ/mol
# GULP energy per Si atom -5567.698797 kJ/mol
# Density = 1.984852 g / cm^3
# Si number density = 19.893798 Si / 1000 Ang^3
#
#
#
# Elastic Constant Matrix: (Units=GPa)
#
#
# Indices 1 2 3 4 5 6 
#
# 1 159.7724 51.0943 86.1664 -27.5134 -11.2229 6.6264
# 2 51.0943 69.5649 46.2279 2.9011 -2.4517 9.2728
# 3 86.1664 46.2279 137.8983 1.0049 3.8741 -7.1891
# 4 -27.5134 2.9011 1.0049 44.0771 -0.6454 3.6615
# 5 -11.2229 -2.4517 3.8741 -0.6454 48.5432 0.6365
# 6 6.6264 9.2728 -7.1891 3.6615 0.6365 26.2329
#
#
#
# Elastic Compliance Matrix: (Units=1/GPa)
#
#
# Indices 1 2 3 4 5 6 
#
# 1 0.014123 -0.004828 -0.007669 0.009815 0.003835 -0.005425
# 2 -0.004828 0.022303 -0.004834 -0.003744 0.000444 -0.007477
# 3 -0.007669 -0.004834 0.014236 -0.005540 -0.003337 0.008402
# 4 0.009815 -0.003744 -0.005540 0.029805 0.003009 -0.006907
# 5 0.003835 0.000444 -0.003337 0.003009 0.021855 -0.002991
# 6 -0.005425 -0.007477 0.008402 -0.006907 -0.002991 0.045473
#
#
# Mechanical properties :
#
#
# Convention : Reuss Voigt Hill
#
# Bulk Modulus (GPa) = 62.50262 81.57921 72.04092
# Shear Modulus (GPa) = 26.62543 36.02044 31.32293
#
# Velocity S-wave (km/s) = 3.66235 4.25977 3.97231
# Velocity P-wave (km/s) = 7.02639 8.08026 7.57168
#
# Compressibility (1/GPa) = 0.01599933
#
# Stress axis : x y z
#
# Youngs Moduli (GPa) = 70.80484 44.83795 70.24339
#
# Poissons Ratio (x) = 0.21650 0.53866
# Poissons Ratio (y) = 0.34187 0.33959
# Poissons Ratio (z) = 0.54297 0.21677
#
# Static dielectric constant tensor:
#      x y z
#    x 1.807270 0.082220 -0.026270 
#    y 0.082220 1.843740 -0.031160 
#    z -0.026270 -0.031160 1.710070 
# 
# From -- ./inp_files/213898.got.cif
#   From: 2010.05.17/outbox.cif.g08.bks.cpg/sg2_107_cif.got.tgz:213898.got - 2010.06.03 11:33:40.
