data_PCOD9004334
_publ_section_title
;
Structure prediction by ZEFSAII (Michael W. Deem and Ramdas Pophale) SiO2 
 PCOD9004334
Probable space group: P -1
;
_chemical_formula_sum "Si O2"
_cell_formula_units_Z 16
_cell_length_a 24.355253
_cell_length_b 5.119458
_cell_length_c 17.709730
_cell_angle_alpha 93.424952
_cell_angle_beta 22.884216
_cell_angle_gamma 79.852649
_cell_volume 688.496522
_symmetry_space_group_name_H-M "P -1"
_symmetry_group_IT_number 2
_symmetry_cell_setting 'triclinic'
loop_
_space_group_symop_operation_xyz
x,y,z
-x,-y,-z
loop_
_atom_site_type_symbol
_atom_site_label
_atom_site_fract_x
_atom_site_fract_y
_atom_site_fract_z
Si Si1 0.688589 0.173107 0.993056
Si Si2 0.628060 0.565871 0.297161
Si Si3 0.518115 0.868596 0.274646
Si Si4 0.171198 0.256766 0.331093
Si Si5 0.149951 0.059919 0.756016
Si Si6 0.022013 0.880600 0.782009
Si Si7 0.156082 0.276715 0.898776
Si Si8 0.092291 0.843276 0.522358
O O1 0.693376 0.024489 0.903440
O O2 0.601836 0.554582 0.108905
O O3 0.888557 0.994762 0.764961
O O4 0.590696 0.076953 0.170592
O O5 0.500000 0.500000 0.500000
O O6 0.571688 0.705781 0.286770
O O7 0.668368 0.779146 0.299434
O O8 0.826913 0.226947 0.031436
O O9 0.308830 0.079710 0.535526
O O10 0.207766 0.492574 0.328711
O O11 0.000000 0.500000 0.500000
O O12 0.126389 0.088198 0.447400
O O13 0.176216 0.006446 0.812377
O O14 0.143390 0.846118 0.696835
O O15 0.957004 0.391880 0.998221
O O16 0.111953 0.812603 0.586690
O O17 0.963127 0.655593 0.876655
#
# Coordination Sequence:
#
# PCOD9004334 Si02
#       8
#     2   2   2   2   2   2   2   2
#     4  11  22  40  64  98 133 162 214 270 332 395
#     4  11  25  39  63  97 134 168 213 278 334 377
#     4  12  25  40  67  96 135 171 218 270 333 383
#     4  10  21  37  65  98 135 166 205 269 343 395
#     4  10  25  41  64  90 129 182 229 264 323 382
#     4  11  23  40  65  93 132 170 230 265 319 396
#     4  10  23  44  65  89 129 179 230 269 319 389
#     4  11  21  37  67  99 132 168 212 271 332 395
#
# _framework density 23.239042999999999
#
# number of rings (size 3 to 8) (size 9 to 14) (size 15 to 20)
#    0.000    1.250    1.250    5.625    7.000    2.000 
#    0.000    0.000    0.000    4.500    0.000    0.000 
#    0.000    0.000    0.000    0.000    0.000    0.000 
#
# Total GULP energy -89375.701607 kJ/mol
# GULP energy per Si atom -5585.981350 kJ/mol
# Density = 2.318615 g / cm^3
# Si number density = 23.239043 Si / 1000 Ang^3
#
#
#
# Elastic Constant Matrix: (Units=GPa)
#
#
# Indices 1 2 3 4 5 6 
#
# 1 119.6325 29.4726 22.1848 -0.7946 11.1006 4.1565
# 2 29.4726 88.2946 0.2438 -18.6203 0.1152 6.4760
# 3 22.1848 0.2438 44.2505 -6.6295 -10.4801 -4.6545
# 4 -0.7946 -18.6203 -6.6295 41.9587 3.0377 15.7975
# 5 11.1006 0.1152 -10.4801 3.0377 43.3451 0.0983
# 6 4.1565 6.4760 -4.6545 15.7975 0.0983 18.4745
#
#
#
# Elastic Compliance Matrix: (Units=1/GPa)
#
#
# Indices 1 2 3 4 5 6 
#
# 1 0.011068 -0.003976 -0.006973 -0.001880 -0.004375 -0.001223
# 2 -0.003976 0.016730 0.002415 0.013757 0.000630 -0.016128
# 3 -0.006973 0.002415 0.029132 0.002803 0.008614 0.005619
# 4 -0.001880 0.013757 0.002803 0.047020 -0.002073 -0.043888
# 5 -0.004375 0.000630 0.008614 -0.002073 0.026407 0.004566
# 6 -0.001223 -0.016128 0.005619 -0.043888 0.004566 0.098977
#
#
# Mechanical properties :
#
#
# Convention : Reuss Voigt Hill
#
# Bulk Modulus (GPa) = 25.08707 39.55331 32.32019
# Shear Modulus (GPa) = 19.25378 34.10742 26.68060
#
# Velocity S-wave (km/s) = 2.88151 3.83518 3.39203
# Velocity P-wave (km/s) = 4.67862 6.05547 5.41101
#
# Compressibility (1/GPa) = 0.03986118
#
# Stress axis : x y z
#
# Youngs Moduli (GPa) = 90.35398 59.77422 34.32597
#
# Poissons Ratio (x) = 0.23767 0.23936
# Poissons Ratio (y) = 0.35925 -0.08290
# Poissons Ratio (z) = 0.63006 -0.14436
#
# Static dielectric constant tensor:
#      x y z
#    x 1.898030 0.047630 0.031240 
#    y 0.047630 1.966890 0.048070 
#    z 0.031240 0.048070 1.898670 
# 
# From -- ./inp_files/116098.got.cif
#   From: 2010.05.17/outbox.cif.g08.bks.cpg/sg2_59_cif.got.tgz:116098.got - 2010.06.03 11:33:40.
