data_PCOD9004574
_publ_section_title
;
Structure prediction by ZEFSAII (Michael W. Deem and Ramdas Pophale) SiO2 
 PCOD9004574
Probable space group: P -1
;
_chemical_formula_sum "Si O2"
_cell_formula_units_Z 14
_cell_length_a 9.410271
_cell_length_b 12.175912
_cell_length_c 16.346507
_cell_angle_alpha 26.571337
_cell_angle_beta 127.624835
_cell_angle_gamma 134.030623
_cell_volume 601.988048
_symmetry_space_group_name_H-M "P -1"
_symmetry_group_IT_number 2
_symmetry_cell_setting 'triclinic'
loop_
_space_group_symop_operation_xyz
x,y,z
-x,-y,-z
loop_
_atom_site_type_symbol
_atom_site_label
_atom_site_fract_x
_atom_site_fract_y
_atom_site_fract_z
Si Si1 0.890054 0.062185 0.994740
Si Si2 0.814925 0.556562 0.422415
Si Si3 0.883987 0.481480 0.101404
Si Si4 0.367845 0.095597 0.553454
Si Si5 0.795702 0.666650 0.782702
Si Si6 0.716072 0.739563 0.423147
Si Si7 0.474872 0.923422 0.947398
O O1 0.821842 0.807221 0.202860
O O2 0.017160 0.330300 0.911923
O O3 0.690408 0.076819 0.882852
O O4 0.000000 0.000000 0.000000
O O5 0.600739 0.298603 0.506363
O O6 0.843318 0.657924 0.459323
O O7 0.000000 0.500000 0.500000
O O8 0.034763 0.375859 0.181414
O O9 0.690076 0.213801 0.236064
O O10 0.841687 0.661560 0.897444
O O11 0.262083 0.103197 0.426142
O O12 0.255504 0.207029 0.506559
O O13 0.601756 0.392711 0.880343
O O14 0.500000 0.500000 0.500000
O O15 0.686147 0.992305 0.205509
O O16 0.500000 0.000000 0.000000
#
# Coordination Sequence:
#
# PCOD9004574 Si02
#       7
#     2   2   2   2   2   2   2
#     4  12  28  46  72 106 143 197 240 296 366 436
#     4  11  25  45  68 105 148 190 241 297 353 429
#     4  11  25  44  73 110 146 182 241 305 362 425
#     4  11  23  45  74 107 141 190 238 298 366 425
#     4  11  22  42  74 109 145 181 237 306 360 418
#     4  10  21  37  71 104 137 180 239 296 348 418
#     4  12  19  43  73 101 140 187 245 293 352 420
#
# _framework density 23.256274999999999
#
# number of rings (size 3 to 8) (size 9 to 14) (size 15 to 20)
#    0.000    0.857    5.714    1.286    6.000    0.000 
#    2.571    3.571    0.000    0.000    0.000    0.000 
#    0.000    0.000    0.000    0.000    0.000    0.000 
#
# Total GULP energy -78308.106551 kJ/mol
# GULP energy per Si atom -5593.436182 kJ/mol
# Density = 2.320334 g / cm^3
# Si number density = 23.256275 Si / 1000 Ang^3
#
#
#
# Elastic Constant Matrix: (Units=GPa)
#
#
# Indices 1 2 3 4 5 6 
#
# 1 139.7989 40.6424 21.1568 -2.2539 -4.6887 4.4765
# 2 40.6424 117.0617 28.0163 -16.5713 -15.5319 12.8418
# 3 21.1568 28.0163 99.5918 -1.7552 -11.0082 11.8504
# 4 -2.2539 -16.5713 -1.7552 44.8845 8.9728 -1.2602
# 5 -4.6887 -15.5319 -11.0082 8.9728 27.8334 1.7980
# 6 4.4765 12.8418 11.8504 -1.2602 1.7980 19.5636
#
#
#
# Elastic Compliance Matrix: (Units=1/GPa)
#
#
# Indices 1 2 3 4 5 6 
#
# 1 0.008072 -0.002751 -0.001075 -0.000542 -0.000466 0.000618
# 2 -0.002751 0.011590 -0.001308 0.002916 0.004964 -0.006455
# 3 -0.001075 -0.001308 0.011912 -0.001178 0.004607 -0.006610
# 4 -0.000542 0.002916 -0.001178 0.024709 -0.006970 0.001155
# 5 -0.000466 0.004964 0.004607 -0.006970 0.043359 -0.010376
# 6 0.000618 -0.006455 -0.006610 0.001155 -0.010376 0.060243
#
#
# Mechanical properties :
#
#
# Convention : Reuss Voigt Hill
#
# Bulk Modulus (GPa) = 46.93749 59.56485 53.25117
# Shear Modulus (GPa) = 28.20788 36.23210 32.21999
#
# Velocity S-wave (km/s) = 3.48647 3.95137 3.72618
# Velocity P-wave (km/s) = 6.03605 6.81804 6.43893
#
# Compressibility (1/GPa) = 0.02130493
#
# Stress axis : x y z
#
# Youngs Moduli (GPa) = 123.89134 86.27920 83.94606
#
# Poissons Ratio (x) = 0.23739 0.09027
# Poissons Ratio (y) = 0.34088 0.10979
# Poissons Ratio (z) = 0.13323 0.11284
#
# Static dielectric constant tensor:
#      x y z
#    x 1.664560 0.155100 -0.211840 
#    y 0.155100 1.795730 0.131610 
#    z -0.211840 0.131610 1.869920 
# 
# From -- ./inp_files/391866.got.cif
#   From: 2010.05.17/outbox.cif.g08.bks.cpg/sg2_196_cif.got.tgz:391866.got - 2010.06.03 11:33:40.
