data_PCOD9004878
_publ_section_title
;
Structure prediction by ZEFSAII (Michael W. Deem and Ramdas Pophale) SiO2 
 PCOD9004878
Probable space group: P -1
;
_chemical_formula_sum "Si O2"
_cell_formula_units_Z 14
_cell_length_a 7.466451
_cell_length_b 13.496769
_cell_length_c 8.998022
_cell_angle_alpha 50.329676
_cell_angle_beta 104.551085
_cell_angle_gamma 114.019980
_cell_volume 637.470091
_symmetry_space_group_name_H-M "P -1"
_symmetry_group_IT_number 2
_symmetry_cell_setting 'triclinic'
loop_
_space_group_symop_operation_xyz
x,y,z
-x,-y,-z
loop_
_atom_site_type_symbol
_atom_site_label
_atom_site_fract_x
_atom_site_fract_y
_atom_site_fract_z
Si Si1 0.390835 0.402838 0.335447
Si Si2 0.412469 0.875420 0.298290
Si Si3 0.214295 0.170596 0.727375
Si Si4 0.196919 0.560923 0.576609
Si Si5 0.469304 0.186245 0.329937
Si Si6 0.183297 0.068188 0.119604
Si Si7 0.784619 0.435409 0.076833
O O1 0.229346 0.306440 0.506413
O O2 0.598517 0.459473 0.410790
O O3 0.416647 0.296968 0.317149
O O4 0.341586 0.512877 0.118526
O O5 0.584770 0.858283 0.248199
O O6 0.252824 0.725239 0.423422
O O7 0.505914 0.917050 0.442077
O O8 0.298030 0.978913 0.144177
O O9 0.027623 0.037519 0.778607
O O10 0.186799 0.180866 0.888865
O O11 0.190005 0.517649 0.789815
O O12 0.000000 0.500000 0.500000
O O13 0.677395 0.272533 0.218137
O O14 0.303352 0.132235 0.227318
O O15 0.000000 0.500000 0.000000
#
# Coordination Sequence:
#
# PCOD9004878 Si02
#       7
#     2   2   2   2   2   2   2
#     4   9  20  41  59  79 123 153 191 245 288 349
#     4   9  20  38  59  81 122 149 188 243 287 347
#     4   9  22  37  57  84 115 157 186 240 293 339
#     4   9  19  38  60  88 114 153 194 233 301 345
#     4   9  20  37  58  84 111 151 193 235 290 352
#     4  11  20  38  58  86 117 148 199 236 289 347
#     4  10  21  38  59  88 115 152 195 242 289 350
#
# _framework density 21.961814
#
# number of rings (size 3 to 8) (size 9 to 14) (size 15 to 20)
#    0.000    3.143    0.000    2.571    4.000    4.571 
#   12.857    1.429    0.000    0.000    0.000    0.000 
#    0.000    0.000    0.000    0.000    0.000    0.000 
#
# Total GULP energy -77980.685831 kJ/mol
# GULP energy per Si atom -5570.048988 kJ/mol
# Density = 2.191183 g / cm^3
# Si number density = 21.961814 Si / 1000 Ang^3
#
#
#
# Elastic Constant Matrix: (Units=GPa)
#
#
# Indices 1 2 3 4 5 6 
#
# 1 56.3118 25.6692 26.2966 2.2371 -13.0821 27.2683
# 2 25.6692 101.4397 35.1537 24.1166 -6.6896 42.3586
# 3 26.2966 35.1537 145.3304 6.0834 -18.5462 25.9291
# 4 2.2371 24.1166 6.0834 21.1654 9.1879 9.7174
# 5 -13.0821 -6.6896 -18.5462 9.1879 38.6639 -4.4591
# 6 27.2683 42.3586 25.9291 9.7174 -4.4591 37.6671
#
#
#
# Elastic Compliance Matrix: (Units=1/GPa)
#
#
# Indices 1 2 3 4 5 6 
#
# 1 0.030043 0.002630 -0.001049 0.002003 0.006910 -0.023684
# 2 0.002630 0.024067 -0.000533 -0.020235 0.007006 -0.022553
# 3 -0.001049 -0.000533 0.008351 -0.001573 0.003521 -0.003568
# 4 0.002003 -0.020235 -0.001573 0.081104 -0.022996 -0.001258
# 5 0.006910 0.007006 0.003521 -0.022996 0.035978 -0.005113
# 6 -0.023684 -0.022553 -0.003568 -0.001258 -0.005113 0.071231
#
#
# Mechanical properties :
#
#
# Convention : Reuss Voigt Hill
#
# Bulk Modulus (GPa) = 15.48965 53.03564 34.26264
# Shear Modulus (GPa) = 18.50505 33.89677 26.20091
#
# Velocity S-wave (km/s) = 2.90591 3.93293 3.45776
# Velocity P-wave (km/s) = 4.28105 6.69517 5.61928
#
# Compressibility (1/GPa) = 0.06455922
#
# Stress axis : x y z
#
# Youngs Moduli (GPa) = 33.28521 41.55021 119.74253
#
# Poissons Ratio (x) = -0.10929 0.12560
# Poissons Ratio (y) = -0.08755 0.06379
# Poissons Ratio (z) = 0.03491 0.02213
#
# Static dielectric constant tensor:
#      x y z
#    x 1.869180 -0.016870 0.027080 
#    y -0.016870 1.812700 0.004390 
#    z 0.027080 0.004390 1.914910 
# 
# From -- ./inp_files/199803.got.cif
#   From: 2010.05.17/outbox.cif.g08.bks.cpg/sg2_100_cif.got.tgz:199803.got - 2010.06.03 11:33:40.
