data_PCOD9004814
_publ_section_title
;
Structure prediction by ZEFSAII (Michael W. Deem and Ramdas Pophale) SiO2 
 PCOD9004814
Probable space group: P -1
;
_chemical_formula_sum "Si O2"
_cell_formula_units_Z 10
_cell_length_a 16.821804
_cell_length_b 13.541266
_cell_length_c 17.454825
_cell_angle_alpha 26.386816
_cell_angle_beta 163.046888
_cell_angle_gamma 145.849234
_cell_volume 501.890617
_symmetry_space_group_name_H-M "P -1"
_symmetry_group_IT_number 2
_symmetry_cell_setting 'triclinic'
loop_
_space_group_symop_operation_xyz
x,y,z
-x,-y,-z
loop_
_atom_site_type_symbol
_atom_site_label
_atom_site_fract_x
_atom_site_fract_y
_atom_site_fract_z
Si Si1 0.861178 0.979248 0.623489
Si Si2 0.578168 0.929211 0.708474
Si Si3 0.279436 0.623755 0.440587
Si Si4 0.527326 0.322199 0.580358
Si Si5 0.258397 0.521747 0.904180
O O1 0.726747 0.803780 0.572402
O O2 0.681022 0.015418 0.510809
O O3 0.814110 0.222692 0.370306
O O4 0.185082 0.868441 0.012320
O O5 0.500000 0.000000 0.500000
O O6 0.772979 0.100063 0.793582
O O7 0.700066 0.659531 0.001928
O O8 0.442970 0.561582 0.555173
O O9 0.996701 0.537539 0.242204
O O10 0.471063 0.525353 0.758528
O O11 0.500000 0.500000 0.500000
#
# Coordination Sequence:
#
# PCOD9004814 Si02
#       5
#     2   2   2   2   2
#     4  11  23  38  60  90 115 146 194 240 284 336
#     4   9  19  36  59  86 119 157 185 220 280 351
#     4  10  21  38  59  84 116 157 193 224 278 350
#     4  11  23  43  62  80 110 155 199 240 283 337
#     4  11  21  37  58  90 123 147 181 238 287 336
#
# _framework density 19.924658999999998
#
# number of rings (size 3 to 8) (size 9 to 14) (size 15 to 20)
#    0.000    1.600    0.000    6.600    0.000    4.800 
#    0.000   16.000    0.000    0.000    0.000    0.000 
#    0.000    0.000    0.000    0.000    0.000    0.000 
#
# Total GULP energy -55875.114182 kJ/mol
# GULP energy per Si atom -5587.511418 kJ/mol
# Density = 1.987931 g / cm^3
# Si number density = 19.924659 Si / 1000 Ang^3
#
#
#
# Elastic Constant Matrix: (Units=GPa)
#
#
# Indices 1 2 3 4 5 6 
#
# 1 63.9872 20.2347 -8.7236 -19.3075 -3.6107 -22.0117
# 2 20.2347 55.3785 -3.2455 -1.7309 -10.9620 -10.6490
# 3 -8.7236 -3.2455 66.4346 -2.3769 -14.9365 3.0827
# 4 -19.3075 -1.7309 -2.3769 33.9891 2.3470 5.2069
# 5 -3.6107 -10.9620 -14.9365 2.3470 16.3971 3.7663
# 6 -22.0117 -10.6490 3.0827 5.2069 3.7663 28.3632
#
#
#
# Elastic Compliance Matrix: (Units=1/GPa)
#
#
# Indices 1 2 3 4 5 6 
#
# 1 0.027635 -0.006694 0.002638 0.013135 -0.001646 0.016454
# 2 -0.006694 0.024809 0.004455 -0.003833 0.019311 0.001774
# 3 0.002638 0.004455 0.020891 0.001910 0.022757 -0.001923
# 4 0.013135 -0.003833 0.001910 0.036725 -0.003715 0.002298
# 5 -0.001646 0.019311 0.022757 -0.003715 0.096788 -0.008671
# 6 0.016454 0.001774 -0.001923 0.002298 -0.008671 0.049631
#
#
# Mechanical properties :
#
#
# Convention : Reuss Voigt Hill
#
# Bulk Modulus (GPa) = 13.48941 22.48126 17.98534
# Shear Modulus (GPa) = 17.83219 27.58551 22.70885
#
# Velocity S-wave (km/s) = 2.99487 3.72491 3.37966
# Velocity P-wave (km/s) = 4.32942 5.45963 4.92704
#
# Compressibility (1/GPa) = 0.07413221
#
# Stress axis : x y z
#
# Youngs Moduli (GPa) = 36.18537 40.30866 47.86849
#
# Poissons Ratio (x) = 0.26984 -0.12628
# Poissons Ratio (y) = 0.24224 -0.21326
# Poissons Ratio (z) = -0.09546 -0.17958
#
# Static dielectric constant tensor:
#      x y z
#    x 1.700910 -0.008340 0.006180 
#    y -0.008340 1.701970 -0.004540 
#    z 0.006180 -0.004540 1.703930 
# 
# From -- ./inp_files/767.got.cif
#   From: 2010.05.17/outbox.cif.g08.bks.cpg/sg2_1_cif.got.tgz:767.got - 2010.06.03 11:33:40.
