data_PCOD9004802
_publ_section_title
;
Structure prediction by ZEFSAII (Michael W. Deem and Ramdas Pophale) SiO2 
 PCOD9004802
Probable space group: P -1
;
_chemical_formula_sum "Si O2"
_cell_formula_units_Z 16
_cell_length_a 9.326937
_cell_length_b 10.397918
_cell_length_c 13.762165
_cell_angle_alpha 43.637668
_cell_angle_beta 116.635712
_cell_angle_gamma 98.272263
_cell_volume 787.233733
_symmetry_space_group_name_H-M "P -1"
_symmetry_group_IT_number 2
_symmetry_cell_setting 'triclinic'
loop_
_space_group_symop_operation_xyz
x,y,z
-x,-y,-z
loop_
_atom_site_type_symbol
_atom_site_label
_atom_site_fract_x
_atom_site_fract_y
_atom_site_fract_z
Si Si1 0.819757 0.654754 0.371333
Si Si2 0.483311 0.214745 0.920749
Si Si3 0.362440 0.989405 0.540980
Si Si4 0.851821 0.646032 0.600348
Si Si5 0.431668 0.313207 0.075576
Si Si6 0.954191 0.621311 0.022630
Si Si7 0.853570 0.088929 0.123249
Si Si8 0.033253 0.925395 0.443782
O O1 0.668457 0.640928 0.263195
O O2 0.761535 0.632045 0.477854
O O3 0.000000 0.500000 0.500000
O O4 0.850924 0.863630 0.234726
O O5 0.444696 0.233169 0.013254
O O6 0.672729 0.229141 0.961589
O O7 0.500000 0.000000 0.000000
O O8 0.270367 0.189085 0.459709
O O9 0.500000 0.000000 0.500000
O O10 0.449578 0.840794 0.732088
O O11 0.218802 0.923602 0.476093
O O12 0.940118 0.483077 0.794081
O O13 0.000094 0.719381 0.555818
O O14 0.500000 0.500000 0.000000
O O15 0.240256 0.355051 0.029697
O O16 0.000000 0.500000 0.000000
O O17 0.001926 0.824912 0.919675
O O18 0.892490 0.078035 0.255495
O O19 0.000000 0.000000 0.500000
#
# Coordination Sequence:
#
# PCOD9004802 Si02
#       8
#     2   2   2   2   2   2   2   2
#     4  10  21  41  66  90 117 163 218 264 308 373
#     4  10  21  42  66  89 120 164 214 261 309 378
#     4  11  21  35  56  88 124 158 197 254 315 370
#     4  10  21  38  59  83 117 162 206 247 306 378
#     4  12  24  39  64  96 125 166 217 264 316 382
#     4  12  23  39  60  94 135 167 202 261 325 379
#     4  10  21  38  62  88 121 163 206 258 313 366
#     4   9  16  32  55  80 110 153 196 237 293 362
#
# _framework density 20.324331999999998
#
# number of rings (size 3 to 8) (size 9 to 14) (size 15 to 20)
#    0.000    1.500    0.000    8.250    0.000    1.000 
#    0.000    7.500    0.000    1.500    0.000    0.000 
#    0.000    0.000    0.000    0.000    0.000    0.000 
#
# Total GULP energy -89094.891334 kJ/mol
# GULP energy per Si atom -5568.430708 kJ/mol
# Density = 2.027807 g / cm^3
# Si number density = 20.324332 Si / 1000 Ang^3
#
#
#
# Elastic Constant Matrix: (Units=GPa)
#
#
# Indices 1 2 3 4 5 6 
#
# 1 126.1692 37.9427 23.5734 0.8016 17.2588 11.0824
# 2 37.9427 72.5553 31.6502 18.1951 3.7392 -5.9530
# 3 23.5734 31.6502 139.5232 18.3686 11.2338 11.5321
# 4 0.8016 18.1951 18.3686 33.7748 0.9377 4.6864
# 5 17.2588 3.7392 11.2338 0.9377 33.3844 2.9226
# 6 11.0824 -5.9530 11.5321 4.6864 2.9226 28.7112
#
#
#
# Elastic Compliance Matrix: (Units=1/GPa)
#
#
# Indices 1 2 3 4 5 6 
#
# 1 0.011272 -0.007346 0.000030 0.004658 -0.004605 -0.006178
# 2 -0.007346 0.022864 -0.003417 -0.011818 0.001782 0.010696
# 3 0.000030 -0.003417 0.008720 -0.002340 -0.002185 -0.003618
# 4 0.004658 -0.011818 -0.002340 0.038474 -0.000543 -0.009533
# 5 -0.004605 0.001782 -0.002185 -0.000543 0.032906 -0.000237
# 6 -0.006178 0.010696 -0.003618 -0.009533 -0.000237 0.042465
#
#
# Mechanical properties :
#
#
# Convention : Reuss Voigt Hill
#
# Bulk Modulus (GPa) = 46.74906 58.28670 52.51788
# Shear Modulus (GPa) = 26.98345 35.51284 31.24815
#
# Velocity S-wave (km/s) = 3.64764 4.18461 3.92532
# Velocity P-wave (km/s) = 6.38684 7.21724 6.81470
#
# Compressibility (1/GPa) = 0.02139080
#
# Stress axis : x y z
#
# Youngs Moduli (GPa) = 88.71338 43.73675 114.67374
#
# Poissons Ratio (x) = 0.32127 -0.00343
# Poissons Ratio (y) = 0.65166 0.39186
# Poissons Ratio (z) = -0.00265 0.14946
#
# Static dielectric constant tensor:
#      x y z
#    x 1.729560 0.067440 0.010980 
#    y 0.067440 1.901400 0.027050 
#    z 0.010980 0.027050 1.782920 
# 
# From -- ./inp_files/498794.got.cif
#   From: 2010.05.17/outbox.cif.g08.bks.cpg/sg2_250_cif.got.tgz:498794.got - 2010.06.03 11:33:40.
