data_PCOD9004427
_publ_section_title
;
Structure prediction by ZEFSAII (Michael W. Deem and Ramdas Pophale) SiO2 
 PCOD9004427
Probable space group: P -1
;
_chemical_formula_sum "Si O2"
_cell_formula_units_Z 16
_cell_length_a 8.564505
_cell_length_b 13.811541
_cell_length_c 10.255001
_cell_angle_alpha 43.496360
_cell_angle_beta 120.351743
_cell_angle_gamma 93.906564
_cell_volume 622.969815
_symmetry_space_group_name_H-M "P -1"
_symmetry_group_IT_number 2
_symmetry_cell_setting 'triclinic'
loop_
_space_group_symop_operation_xyz
x,y,z
-x,-y,-z
loop_
_atom_site_type_symbol
_atom_site_label
_atom_site_fract_x
_atom_site_fract_y
_atom_site_fract_z
Si Si1 0.755861 0.121588 0.665042
Si Si2 0.361702 0.041950 0.033684
Si Si3 0.713359 0.055886 0.306870
Si Si4 0.927108 0.470964 0.784105
Si Si5 0.292368 0.372146 0.236957
Si Si6 0.469247 0.582583 0.049093
Si Si7 0.071039 0.639262 0.479532
Si Si8 0.038659 0.850736 0.855940
O O1 0.515036 0.236519 0.416245
O O2 0.868046 0.225405 0.582522
O O3 0.735954 0.071786 0.854069
O O4 0.876453 0.961463 0.788511
O O5 0.530471 0.019922 0.235433
O O6 0.167690 0.225542 0.793587
O O7 0.500000 0.000000 0.000000
O O8 0.795043 0.095363 0.168211
O O9 0.898202 0.906809 0.608784
O O10 0.625282 0.225395 0.181982
O O11 0.759355 0.635247 0.626652
O O12 0.013891 0.520538 0.650600
O O13 0.116810 0.392393 0.044511
O O14 0.868823 0.332124 0.873039
O O15 0.300950 0.539646 0.077943
O O16 0.680455 0.497255 0.310432
O O17 0.500000 0.500000 0.000000
#
# Coordination Sequence:
#
# PCOD9004427 Si02
#       8
#     2   2   2   2   2   2   2   2
#     4  11  25  45  75 102 136 186 242 299 356 422
#     4  12  27  48  72 100 142 194 241 287 353 434
#     4  11  25  45  70 105 148 187 231 300 362 413
#     4  11  22  39  65 104 140 180 229 289 355 423
#     4  10  21  37  66  99 139 179 228 285 358 421
#     4  11  21  41  68 102 140 182 234 291 359 415
#     4  11  25  42  70  97 142 186 236 280 351 431
#     4  11  25  43  74 110 143 174 242 310 358 410
#
# _framework density 25.683427999999999
#
# number of rings (size 3 to 8) (size 9 to 14) (size 15 to 20)
#    0.000    1.000    2.500    4.125    1.750    4.500 
#    0.000    0.625    0.000    0.000    0.000    0.000 
#    0.000    0.000    0.000    0.000    0.000    0.000 
#
# Total GULP energy -89192.988262 kJ/mol
# GULP energy per Si atom -5574.561766 kJ/mol
# Density = 2.562497 g / cm^3
# Si number density = 25.683428 Si / 1000 Ang^3
#
#
#
# Elastic Constant Matrix: (Units=GPa)
#
#
# Indices 1 2 3 4 5 6 
#
# 1 103.0812 25.1412 24.4996 -6.7275 -4.6586 -0.1084
# 2 25.1412 36.0740 15.3992 -17.5730 1.7238 1.3601
# 3 24.4996 15.3992 87.4977 -17.7806 -5.1293 2.1312
# 4 -6.7275 -17.5730 -17.7806 32.1401 12.4126 6.5425
# 5 -4.6586 1.7238 -5.1293 12.4126 54.1259 -8.5938
# 6 -0.1084 1.3601 2.1312 6.5425 -8.5938 45.1047
#
#
#
# Elastic Compliance Matrix: (Units=1/GPa)
#
#
# Indices 1 2 3 4 5 6 
#
# 1 0.012795 -0.011114 -0.002828 -0.006535 0.003007 0.002020
# 2 -0.011114 0.052006 0.000050 0.032232 -0.011339 -0.008433
# 3 -0.002828 0.000050 0.013802 0.007891 -0.001065 -0.002008
# 4 -0.006535 0.032232 0.007891 0.061026 -0.016971 -0.013446
# 5 0.003007 -0.011339 -0.001065 -0.016971 0.024069 0.007447
# 6 0.002020 -0.008433 -0.002008 -0.013446 0.007447 0.025894
#
#
# Mechanical properties :
#
#
# Convention : Reuss Voigt Hill
#
# Bulk Modulus (GPa) = 19.67730 39.63696 29.65713
# Shear Modulus (GPa) = 21.33875 37.04833 29.19354
#
# Velocity S-wave (km/s) = 2.88555 3.80215 3.37511
# Velocity P-wave (km/s) = 4.33359 5.89419 5.17308
#
# Compressibility (1/GPa) = 0.05081997
#
# Stress axis : x y z
#
# Youngs Moduli (GPa) = 78.15395 19.22843 72.45379
#
# Poissons Ratio (x) = 0.21370 0.20488
# Poissons Ratio (y) = 0.86858 -0.00360
# Poissons Ratio (z) = 0.22100 -0.00095
#
# Static dielectric constant tensor:
#      x y z
#    x 2.130740 -0.122760 -0.062570 
#    y -0.122760 2.110820 0.037210 
#    z -0.062570 0.037210 2.073390 
# 
# From -- ./inp_files/396979.got.cif
#   From: 2010.05.17/outbox.cif.g08.bks.cpg/sg2_199_cif.got.tgz:396979.got - 2010.06.03 11:33:40.
