data_PCOD9004849
_publ_section_title
;
Structure prediction by ZEFSAII (Michael W. Deem and Ramdas Pophale) SiO2 
 PCOD9004849
Probable space group: P -1
;
_chemical_formula_sum "Si O2"
_cell_formula_units_Z 16
_cell_length_a 16.234048
_cell_length_b 12.015835
_cell_length_c 4.766309
_cell_angle_alpha 108.935676
_cell_angle_beta 57.675566
_cell_angle_gamma 116.743174
_cell_volume 697.275227
_symmetry_space_group_name_H-M "P -1"
_symmetry_group_IT_number 2
_symmetry_cell_setting 'triclinic'
loop_
_space_group_symop_operation_xyz
x,y,z
-x,-y,-z
loop_
_atom_site_type_symbol
_atom_site_label
_atom_site_fract_x
_atom_site_fract_y
_atom_site_fract_z
Si Si1 0.259714 0.578150 0.730783
Si Si2 0.376387 0.315984 0.499820
Si Si3 0.969598 0.859147 0.570342
Si Si4 0.963819 0.609764 0.022440
Si Si5 0.176931 0.756267 0.645949
Si Si6 0.390602 0.575810 0.977755
Si Si7 0.740147 0.818538 0.899094
Si Si8 0.813182 0.081871 0.705105
O O1 0.154746 0.463484 0.909301
O O2 0.223987 0.671804 0.678744
O O3 0.319362 0.627045 0.949777
O O4 0.344464 0.554158 0.353673
O O5 0.380456 0.442244 0.753477
O O6 0.489947 0.337357 0.186748
O O7 0.297410 0.285552 0.359138
O O8 0.340448 0.211457 0.723702
O O9 0.961497 0.730092 0.309732
O O10 0.850170 0.829433 0.848760
O O11 0.070998 0.892845 0.611588
O O12 0.000000 0.000000 0.500000
O O13 0.000000 0.500000 0.000000
O O14 0.061568 0.667700 0.681762
O O15 0.235256 0.843913 0.356384
O O16 0.166292 0.851929 0.978040
O O17 0.753317 0.940765 0.786852
#
# Coordination Sequence:
#
# PCOD9004849 Si02
#       8
#     2   2   2   2   2   2   2   2
#     4  11  22  38  62  87 117 157 199 243 296 361
#     4  11  23  39  60  87 117 150 194 250 307 357
#     4   9  19  34  55  86 120 155 195 238 289 355
#     4   9  19  34  55  86 120 155 195 238 289 355
#     4  10  21  38  59  86 122 158 194 239 293 354
#     4  11  23  39  60  87 117 150 194 250 307 357
#     4  11  22  38  62  87 117 157 199 243 296 361
#     4  10  21  38  59  86 122 158 194 239 293 354
#
# _framework density 22.946462
#
# number of rings (size 3 to 8) (size 9 to 14) (size 15 to 20)
#    0.000    1.750    0.000    4.500    0.000    7.000 
#    0.000   15.000    0.000   15.000    0.000    0.000 
#    0.000    0.000    0.000    0.000    0.000    0.000 
#
# Total GULP energy -89139.984351 kJ/mol
# GULP energy per Si atom -5571.249022 kJ/mol
# Density = 2.289423 g / cm^3
# Si number density = 22.946462 Si / 1000 Ang^3
#
#
#
# Elastic Constant Matrix: (Units=GPa)
#
#
# Indices 1 2 3 4 5 6 
#
# 1 55.9315 34.4208 8.4493 -13.4797 6.8214 -13.2287
# 2 34.4208 115.7541 30.5193 -16.7455 -9.7991 -21.1863
# 3 8.4493 30.5193 49.4987 -5.7225 12.8856 5.6388
# 4 -13.4797 -16.7455 -5.7225 30.3624 -4.6447 0.9308
# 5 6.8214 -9.7991 12.8856 -4.6447 33.4113 -4.2776
# 6 -13.2287 -21.1863 5.6388 0.9308 -4.2776 42.6066
#
#
#
# Elastic Compliance Matrix: (Units=1/GPa)
#
#
# Indices 1 2 3 4 5 6 
#
# 1 0.025037 -0.007104 0.002263 0.006493 -0.006766 0.003121
# 2 -0.007104 0.018647 -0.014568 0.006322 0.014740 0.010336
# 3 0.002263 -0.014568 0.035268 -0.003108 -0.020457 -0.013195
# 4 0.006493 0.006322 -0.003108 0.039768 0.007960 0.005502
# 5 -0.006766 0.014740 -0.020457 0.007960 0.046218 0.012403
# 6 0.003121 0.010336 -0.013195 0.005502 0.012403 0.032450
#
#
# Mechanical properties :
#
#
# Convention : Reuss Voigt Hill
#
# Bulk Modulus (GPa) = 24.91693 40.88477 32.90085
# Shear Modulus (GPa) = 20.03330 31.12907 25.58118
#
# Velocity S-wave (km/s) = 2.95794 3.68719 3.34251
# Velocity P-wave (km/s) = 4.74849 5.99861 5.40978
#
# Compressibility (1/GPa) = 0.04013335
#
# Stress axis : x y z
#
# Youngs Moduli (GPa) = 39.94066 53.62934 28.35452
#
# Poissons Ratio (x) = 0.38097 -0.06416
# Poissons Ratio (y) = 0.28373 0.41306
# Poissons Ratio (z) = -0.09037 0.78126
#
# Static dielectric constant tensor:
#      x y z
#    x 1.902000 -0.025600 -0.055950 
#    y -0.025600 1.917050 0.038110 
#    z -0.055950 0.038110 1.928690 
# 
# From -- ./inp_files/109838.got.cif
#   From: 2010.05.17/outbox.cif.g08.bks.cpg/sg2_55_cif.got.tgz:109838.got - 2010.06.03 11:33:40.
