data_PCOD9004412
_publ_section_title
;
Structure prediction by ZEFSAII (Michael W. Deem and Ramdas Pophale) SiO2 
 PCOD9004412
Probable space group: P -1
;
_chemical_formula_sum "Si O2"
_cell_formula_units_Z 16
_cell_length_a 17.638218
_cell_length_b 5.148647
_cell_length_c 15.914216
_cell_angle_alpha 103.416966
_cell_angle_beta 153.583861
_cell_angle_gamma 76.470451
_cell_volume 624.268892
_symmetry_space_group_name_H-M "P -1"
_symmetry_group_IT_number 2
_symmetry_cell_setting 'triclinic'
loop_
_space_group_symop_operation_xyz
x,y,z
-x,-y,-z
loop_
_atom_site_type_symbol
_atom_site_label
_atom_site_fract_x
_atom_site_fract_y
_atom_site_fract_z
Si Si1 0.979058 0.263569 0.895439
Si Si2 0.166162 0.689986 0.580788
Si Si3 0.657498 0.175661 0.647569
Si Si4 0.126884 0.894730 0.896461
Si Si5 0.494494 0.479097 0.349674
Si Si6 0.226621 0.271559 0.746574
Si Si7 0.813851 0.585179 0.595902
Si Si8 0.694869 0.694552 0.996057
O O1 0.844636 0.077046 0.794877
O O2 0.909738 0.415305 0.752946
O O3 0.139400 0.078077 0.006472
O O4 0.000000 0.500000 0.000000
O O5 0.257034 0.494037 0.724843
O O6 0.204402 0.595577 0.517831
O O7 0.962884 0.667074 0.395829
O O8 0.215454 0.988232 0.669964
O O9 0.594423 0.343428 0.516168
O O10 0.663895 0.368976 0.749355
O O11 0.500000 0.000000 0.500000
O O12 0.231807 0.611416 0.969255
O O13 0.931232 0.817553 0.700246
O O14 0.174272 0.081997 0.880800
O O15 0.626178 0.670167 0.450575
O O16 0.445776 0.275144 0.214159
O O17 0.351511 0.271023 0.950454
#
# Coordination Sequence:
#
# PCOD9004412 Si02
#       8
#     2   2   2   2   2   2   2   2
#     4  11  24  42  69 100 134 172 228 287 327 387
#     4  10  21  37  66  96 132 169 217 278 326 396
#     4  10  22  43  67  93 129 180 227 266 336 402
#     4  12  24  43  69 102 134 173 229 278 328 394
#     4  10  25  45  64  96 137 181 218 274 336 408
#     4  10  21  38  64 100 129 169 219 274 334 389
#     4  11  24  44  68 101 135 179 225 273 340 396
#     4  12  25  44  69 102 138 177 222 277 339 398
#
# _framework density 25.629981999999998
#
# number of rings (size 3 to 8) (size 9 to 14) (size 15 to 20)
#    0.000    1.250    2.500    2.250    7.000    0.500 
#    0.000    1.250    0.000    0.000    0.000    0.000 
#    0.000    0.000    0.000    0.000    0.000    0.000 
#
# Total GULP energy -89551.152877 kJ/mol
# GULP energy per Si atom -5596.947055 kJ/mol
# Density = 2.557165 g / cm^3
# Si number density = 25.629982 Si / 1000 Ang^3
#
#
#
# Elastic Constant Matrix: (Units=GPa)
#
#
# Indices 1 2 3 4 5 6 
#
# 1 134.5172 43.1660 45.2808 3.7907 -27.1776 9.4317
# 2 43.1660 98.1889 2.1950 5.3539 -5.2925 11.4101
# 3 45.2808 2.1950 66.5553 8.4721 -29.8064 6.5375
# 4 3.7907 5.3539 8.4721 34.9427 2.8145 -2.7498
# 5 -27.1776 -5.2925 -29.8064 2.8145 55.2585 11.4476
# 6 9.4317 11.4101 6.5375 -2.7498 11.4476 43.1977
#
#
#
# Elastic Compliance Matrix: (Units=1/GPa)
#
#
# Indices 1 2 3 4 5 6 
#
# 1 0.011764 -0.004938 -0.007302 0.001100 0.001414 -0.000464
# 2 -0.004938 0.012998 0.004761 -0.003106 0.002350 -0.003896
# 3 -0.007302 0.004761 0.028053 -0.008522 0.014128 -0.008196
# 4 0.001100 -0.003106 -0.008522 0.032078 -0.007192 0.005818
# 5 0.001414 0.002350 0.014128 -0.007192 0.029346 -0.011302
# 6 -0.000464 -0.003896 -0.008196 0.005818 -0.011302 0.028886
#
#
# Mechanical properties :
#
#
# Convention : Reuss Voigt Hill
#
# Bulk Modulus (GPa) = 26.41492 53.39388 39.90440
# Shear Modulus (GPa) = 29.29105 40.58774 34.93940
#
# Velocity S-wave (km/s) = 3.38426 3.98377 3.69619
# Velocity P-wave (km/s) = 5.05961 6.48370 5.81541
#
# Compressibility (1/GPa) = 0.03785740
#
# Stress axis : x y z
#
# Youngs Moduli (GPa) = 85.00644 76.93642 35.64682
#
# Poissons Ratio (x) = 0.37993 0.26029
# Poissons Ratio (y) = 0.41979 -0.16973
# Poissons Ratio (z) = 0.62070 -0.36633
#
# Static dielectric constant tensor:
#      x y z
#    x 1.989790 -0.020660 0.034560 
#    y -0.020660 2.035090 -0.004440 
#    z 0.034560 -0.004440 2.134270 
# 
# From -- ./inp_files/536432.got.cif
#   From: 2010.05.17/outbox.cif.g08.bks.cpg/sg2_269_cif.got.tgz:536432.got - 2010.06.03 11:33:40.
