data_PCOD9004816
_publ_section_title
;
Structure prediction by ZEFSAII (Michael W. Deem and Ramdas Pophale) SiO2 
 PCOD9004816
Probable space group: P -1
;
_chemical_formula_sum "Si O2"
_cell_formula_units_Z 16
_cell_length_a 13.047378
_cell_length_b 8.283792
_cell_length_c 9.111583
_cell_angle_alpha 107.088300
_cell_angle_beta 116.378480
_cell_angle_gamma 71.194651
_cell_volume 821.883733
_symmetry_space_group_name_H-M "P -1"
_symmetry_group_IT_number 2
_symmetry_cell_setting 'triclinic'
loop_
_space_group_symop_operation_xyz
x,y,z
-x,-y,-z
loop_
_atom_site_type_symbol
_atom_site_label
_atom_site_fract_x
_atom_site_fract_y
_atom_site_fract_z
Si Si1 0.697935 0.742086 0.698538
Si Si2 0.957542 0.189430 0.450628
Si Si3 0.094145 0.328132 0.964722
Si Si4 0.275451 0.555909 0.605938
Si Si5 0.716339 0.004750 0.534880
Si Si6 0.531940 0.328149 0.374903
Si Si7 0.971396 0.021523 0.817335
Si Si8 0.183567 0.309951 0.698198
O O1 0.720619 0.573893 0.563046
O O2 0.588687 0.735078 0.732731
O O3 0.669474 0.901241 0.609084
O O4 0.815379 0.736933 0.863203
O O5 0.829303 0.279374 0.444092
O O6 0.049469 0.309201 0.567383
O O7 0.000000 0.000000 0.500000
O O8 0.958218 0.147885 0.267672
O O9 0.172333 0.338485 0.872759
O O10 0.019666 0.186350 0.842807
O O11 0.000000 0.500000 0.000000
O O12 0.397847 0.616628 0.703402
O O13 0.238294 0.454834 0.693499
O O14 0.624216 0.176670 0.476019
O O15 0.837282 0.040191 0.687251
O O16 0.747771 0.873556 0.379668
O O17 0.500000 0.500000 0.500000
O O18 0.000000 0.000000 0.000000
#
# Coordination Sequence:
#
# PCOD9004816 Si02
#       8
#     2   2   2   2   2   2   2   2
#     4  10  22  41  61  91 118 158 202 248 300 346
#     4  11  20  35  59  84 119 158 200 239 292 359
#     4  12  25  38  59  91 131 153 191 248 307 358
#     4  10  21  38  59  84 117 158 207 244 284 353
#     4  10  21  41  66  86 120 157 203 247 290 363
#     4  10  22  38  65  89 114 155 210 251 288 347
#     4  11  23  37  58  93 121 153 192 243 310 353
#     4  10  22  37  59  88 120 162 196 239 302 352
#
# _framework density 19.467472999999998
#
# number of rings (size 3 to 8) (size 9 to 14) (size 15 to 20)
#    0.000    1.500    2.500    3.000    5.250    0.000 
#    0.000    1.250    0.000    0.000    0.000    0.000 
#    0.000    0.000    0.000    0.000    0.000    0.000 
#
# Total GULP energy -89265.060835 kJ/mol
# GULP energy per Si atom -5579.066302 kJ/mol
# Density = 1.942316 g / cm^3
# Si number density = 19.467473 Si / 1000 Ang^3
#
#
#
# Elastic Constant Matrix: (Units=GPa)
#
#
# Indices 1 2 3 4 5 6 
#
# 1 120.4998 36.9326 10.9699 -2.3250 -3.2591 12.5202
# 2 36.9326 94.6325 19.4149 -8.4587 -2.1443 -9.2076
# 3 10.9699 19.4149 67.5528 -3.0719 -15.6770 1.2580
# 4 -2.3250 -8.4587 -3.0719 11.8613 7.7371 0.9218
# 5 -3.2591 -2.1443 -15.6770 7.7371 32.5532 -3.4610
# 6 12.5202 -9.2076 1.2580 0.9218 -3.4610 30.4971
#
#
#
# Elastic Compliance Matrix: (Units=1/GPa)
#
#
# Indices 1 2 3 4 5 6 
#
# 1 0.010291 -0.004598 -0.000230 -0.001076 0.000284 -0.005539
# 2 -0.004598 0.014532 -0.003802 0.010058 -0.003111 0.005775
# 3 -0.000230 -0.003802 0.017907 -0.004112 0.009262 -0.000617
# 4 -0.001076 0.010058 -0.004112 0.108333 -0.027465 -0.002744
# 5 0.000284 -0.003111 0.009262 -0.027465 0.041973 0.004156
# 6 -0.005539 0.005775 -0.000617 -0.002744 0.004156 0.037388
#
#
# Mechanical properties :
#
#
# Convention : Reuss Voigt Hill
#
# Bulk Modulus (GPa) = 39.25973 46.36888 42.81431
# Shear Modulus (GPa) = 19.51799 29.34016 24.42907
#
# Velocity S-wave (km/s) = 3.16981 3.88640 3.54625
# Velocity P-wave (km/s) = 5.79720 6.63394 6.22964
#
# Compressibility (1/GPa) = 0.02547139
#
# Stress axis : x y z
#
# Youngs Moduli (GPa) = 97.16875 68.81316 55.84356
#
# Poissons Ratio (x) = 0.31640 0.01283
# Poissons Ratio (y) = 0.44678 0.21231
# Poissons Ratio (z) = 0.02232 0.26162
#
# Static dielectric constant tensor:
#      x y z
#    x 1.735040 0.038500 -0.043640 
#    y 0.038500 1.692360 -0.010190 
#    z -0.043640 -0.010190 1.680910 
# 
# From -- ./inp_files/189235.got.cif
#   From: 2010.05.17/outbox.cif.g08.bks.cpg/sg2_95_cif.got.tgz:189235.got - 2010.06.03 11:33:40.
