data_PCOD9005890
_publ_section_title
;
Structure prediction by ZEFSAII (Michael W. Deem and Ramdas Pophale) SiO2 
 PCOD9005890
Probable space group: P -1
;
_chemical_formula_sum "Si O2"
_cell_formula_units_Z 14
_cell_length_a 10.896267
_cell_length_b 13.776581
_cell_length_c 15.906865
_cell_angle_alpha 142.478258
_cell_angle_beta 59.471651
_cell_angle_gamma 147.401887
_cell_volume 683.764903
_symmetry_space_group_name_H-M "P -1"
_symmetry_group_IT_number 2
_symmetry_cell_setting 'triclinic'
loop_
_space_group_symop_operation_xyz
x,y,z
-x,-y,-z
loop_
_atom_site_type_symbol
_atom_site_label
_atom_site_fract_x
_atom_site_fract_y
_atom_site_fract_z
Si Si1 0.161688 0.984966 0.701230
Si Si2 0.514469 0.203235 0.855846
Si Si3 0.718235 0.810179 0.681632
Si Si4 0.120195 0.595343 0.654027
Si Si5 0.358330 0.704520 0.820527
Si Si6 0.640221 0.289144 0.685074
Si Si7 0.930076 0.614018 0.129725
O O1 0.953425 0.921577 0.708612
O O2 0.021208 0.679061 0.536191
O O3 0.300317 0.124974 0.839743
O O4 0.411330 0.207486 0.703661
O O5 0.678704 0.315015 0.790842
O O6 0.361202 0.903813 0.735674
O O7 0.691981 0.434552 0.026985
O O8 0.500000 0.500000 0.500000
O O9 0.577641 0.776695 0.780739
O O10 0.834423 0.047941 0.740020
O O11 0.216784 0.603424 0.711923
O O12 0.913290 0.539693 0.713935
O O13 0.160673 0.470047 0.800960
O O14 0.500000 0.000000 0.000000
O O15 0.500000 0.000000 0.500000
O O16 0.000000 0.500000 0.000000
#
# Coordination Sequence:
#
# PCOD9005890 Si02
#       7
#     2   2   2   2   2   2   2
#     4   9  22  41  61 100 134 177 217 282 342 390
#     4  10  21  38  64 100 134 176 220 277 341 400
#     4  12  26  49  67  99 145 179 225 293 341 400
#     4  11  18  40  67  97 136 171 232 273 330 408
#     4  12  24  42  72 102 131 183 236 273 337 413
#     4   8  19  34  59  95 129 173 221 268 327 402
#     4  12  25  44  71 102 135 184 231 280 342 412
#
# _framework density 20.474874
#
# number of rings (size 3 to 8) (size 9 to 14) (size 15 to 20)
#    0.857    0.571    4.286    1.286    0.000    1.143 
#    2.571    0.714    0.000    0.000    0.000    0.000 
#    0.000    0.000    0.000    0.000    0.000    0.000 
#
# Total GULP energy -78103.263857 kJ/mol
# GULP energy per Si atom -5578.804561 kJ/mol
# Density = 2.042827 g / cm^3
# Si number density = 20.474874 Si / 1000 Ang^3
#
#
#
# Elastic Constant Matrix: (Units=GPa)
#
#
# Indices 1 2 3 4 5 6 
#
# 1 114.4924 25.5165 25.6965 -9.8453 1.2301 25.0978
# 2 25.5165 99.3712 23.4493 2.1441 -27.0293 6.2236
# 3 25.6965 23.4493 68.7995 12.6222 -4.1117 -0.0965
# 4 -9.8453 2.1441 12.6222 33.8722 0.5369 -7.3182
# 5 1.2301 -27.0293 -4.1117 0.5369 35.1679 -7.3188
# 6 25.0978 6.2236 -0.0965 -7.3182 -7.3188 39.9564
#
#
#
# Elastic Compliance Matrix: (Units=1/GPa)
#
#
# Indices 1 2 3 4 5 6 
#
# 1 0.012533 -0.003085 -0.004676 0.004022 -0.004996 -0.007581
# 2 -0.003085 0.014550 -0.003036 -0.000511 0.011284 0.001638
# 3 -0.004676 -0.003036 0.018768 -0.007705 0.000590 0.002152
# 4 0.004022 -0.000511 -0.007705 0.034395 -0.001208 0.003613
# 5 -0.004996 0.011284 0.000590 -0.001208 0.039102 0.008323
# 6 -0.007581 0.001638 0.002152 0.003613 0.008323 0.031726
#
#
# Mechanical properties :
#
#
# Convention : Reuss Voigt Hill
#
# Bulk Modulus (GPa) = 41.22870 47.99864 44.61367
# Shear Modulus (GPa) = 27.66170 35.66601 31.66386
#
# Velocity S-wave (km/s) = 3.67959 4.17818 3.93679
# Velocity P-wave (km/s) = 6.18324 6.83885 6.51929
#
# Compressibility (1/GPa) = 0.02425495
#
# Stress axis : x y z
#
# Youngs Moduli (GPa) = 79.79037 68.72917 53.28108
#
# Poissons Ratio (x) = 0.21206 0.24917
# Poissons Ratio (y) = 0.24619 0.16177
# Poissons Ratio (z) = 0.37314 0.20867
#
# Static dielectric constant tensor:
#      x y z
#    x 1.775810 0.022800 0.012670 
#    y 0.022800 1.743610 -0.002270 
#    z 0.012670 -0.002270 1.726240 
# 
# From -- ./inp_files/569966.got.cif
#   From: 2010.05.17/outbox.cif.g08.bks.cpg/sg2_285_cif.got.tgz:569966.got - 2010.06.03 11:33:40.
