data_PCOD9005428
_publ_section_title
;
Structure prediction by ZEFSAII (Michael W. Deem and Ramdas Pophale) SiO2 
 PCOD9005428
Probable space group: P -1
;
_chemical_formula_sum "Si O2"
_cell_formula_units_Z 14
_cell_length_a 8.289979
_cell_length_b 6.927204
_cell_length_c 12.891096
_cell_angle_alpha 134.234764
_cell_angle_beta 107.842396
_cell_angle_gamma 73.303330
_cell_volume 501.951402
_symmetry_space_group_name_H-M "P -1"
_symmetry_group_IT_number 2
_symmetry_cell_setting 'triclinic'
loop_
_space_group_symop_operation_xyz
x,y,z
-x,-y,-z
loop_
_atom_site_type_symbol
_atom_site_label
_atom_site_fract_x
_atom_site_fract_y
_atom_site_fract_z
Si Si1 0.769253 0.485254 0.935361
Si Si2 0.167238 0.007581 0.354629
Si Si3 0.863832 0.468375 0.345615
Si Si4 0.181890 0.070007 0.733524
Si Si5 0.519289 0.660487 0.283470
Si Si6 0.484547 0.271607 0.325033
Si Si7 0.127054 0.217225 0.143505
O O1 0.856478 0.180414 0.821037
O O2 0.567828 0.466908 0.879724
O O3 0.820954 0.639178 0.898984
O O4 0.815225 0.644020 0.103207
O O5 0.365680 0.895129 0.374553
O O6 0.148703 0.330259 0.481295
O O7 0.000009 0.945321 0.363776
O O8 0.833496 0.172106 0.272495
O O9 0.722370 0.648062 0.314013
O O10 0.021449 0.411744 0.278189
O O11 0.373959 0.964596 0.697069
O O12 0.517352 0.436044 0.289669
O O13 0.500000 0.500000 0.500000
O O14 0.308908 0.152934 0.215832
O O15 0.000000 0.000000 0.000000
#
# Coordination Sequence:
#
# PCOD9005428 Si02
#       7
#     2   2   2   2   2   2   2
#     4   9  21  39  59  85 119 158 195 240 301 350
#     4  10  21  38  62  88 120 154 202 245 296 358
#     4  11  21  36  63  89 115 159 200 246 295 349
#     4  11  21  38  65  85 120 158 202 238 301 355
#     4   8  21  38  62  84 119 154 200 238 300 354
#     4  10  22  40  60  90 120 159 202 248 294 361
#     4  11  22  38  61  90 124 152 206 251 293 353
#
# _framework density 27.891148000000001
#
# number of rings (size 3 to 8) (size 9 to 14) (size 15 to 20)
#    0.857    1.143    1.429    2.143    2.000    3.429 
#    2.571    0.000    0.000    1.714    0.000    0.000 
#    0.000    0.000    0.000    0.000    0.000    0.000 
#
# Total GULP energy -78043.214162 kJ/mol
# GULP energy per Si atom -5574.515297 kJ/mol
# Density = 2.782767 g / cm^3
# Si number density = 27.891148 Si / 1000 Ang^3
#
#
#
# Elastic Constant Matrix: (Units=GPa)
#
#
# Indices 1 2 3 4 5 6 
#
# 1 101.9931 23.3221 33.0217 -4.5550 6.7817 -55.5167
# 2 23.3221 112.4682 40.5814 15.5141 -9.4775 -29.1125
# 3 33.0217 40.5814 177.7082 9.2485 -4.2233 -14.6529
# 4 -4.5550 15.5141 9.2485 48.9430 -3.4302 0.9345
# 5 6.7817 -9.4775 -4.2233 -3.4302 35.8128 -4.3714
# 6 -55.5167 -29.1125 -14.6529 0.9345 -4.3714 62.0137
#
#
#
# Elastic Compliance Matrix: (Units=1/GPa)
#
#
# Indices 1 2 3 4 5 6 
#
# 1 0.020392 0.001031 -0.002664 0.001622 -0.001553 0.017976
# 2 0.001031 0.011743 -0.002125 -0.003125 0.003120 0.006201
# 3 -0.002664 -0.002125 0.006507 -0.000740 0.000418 -0.001804
# 4 0.001622 -0.003125 -0.000740 0.021779 0.000808 -0.000461
# 5 -0.001553 0.003120 0.000418 0.000808 0.029442 0.002236
# 6 0.017976 0.006201 -0.001804 -0.000461 0.002236 0.034867
#
#
# Mechanical properties :
#
#
# Convention : Reuss Voigt Hill
#
# Bulk Modulus (GPa) = 32.12721 65.11333 48.62027
# Shear Modulus (GPa) = 35.05774 49.03686 42.04730
#
# Velocity S-wave (km/s) = 3.54919 4.19758 3.88693
# Velocity P-wave (km/s) = 5.32348 6.84756 6.13305
#
# Compressibility (1/GPa) = 0.03112626
#
# Stress axis : x y z
#
# Youngs Moduli (GPa) = 49.03988 85.15398 153.67598
#
# Poissons Ratio (x) = -0.08780 0.40935
# Poissons Ratio (y) = -0.05056 0.32660
# Poissons Ratio (z) = 0.13063 0.18098
#
# Static dielectric constant tensor:
#      x y z
#    x 2.513650 -0.026040 0.085100 
#    y -0.026040 2.261530 -0.071510 
#    z 0.085100 -0.071510 2.117390 
# 
# From -- ./inp_files/461166.got.cif
#   From: 2010.05.17/outbox.cif.g08.bks.cpg/sg2_231_cif.got.tgz:461166.got - 2010.06.03 11:33:40.
