data_PCOD9005277
_publ_section_title
;
Structure prediction by ZEFSAII (Michael W. Deem and Ramdas Pophale) SiO2 
 PCOD9005277
Probable space group: P -1
;
_chemical_formula_sum "Si O2"
_cell_formula_units_Z 16
_cell_length_a 8.450140
_cell_length_b 6.123578
_cell_length_c 19.311739
_cell_angle_alpha 82.771627
_cell_angle_beta 99.795591
_cell_angle_gamma 134.492141
_cell_volume 702.415093
_symmetry_space_group_name_H-M "P -1"
_symmetry_group_IT_number 2
_symmetry_cell_setting 'triclinic'
loop_
_space_group_symop_operation_xyz
x,y,z
-x,-y,-z
loop_
_atom_site_type_symbol
_atom_site_label
_atom_site_fract_x
_atom_site_fract_y
_atom_site_fract_z
Si Si1 0.793530 0.577879 0.790091
Si Si2 0.490806 0.730254 0.089871
Si Si3 0.396680 0.571642 0.544319
Si Si4 0.157091 0.276414 0.836642
Si Si5 0.097040 0.583305 0.713738
Si Si6 0.751731 0.277075 0.584355
Si Si7 0.821405 0.432941 0.041518
Si Si8 0.551407 0.721305 0.333760
O O1 0.663845 0.351598 0.853927
O O2 0.615251 0.522668 0.727944
O O3 0.916962 0.512598 0.756396
O O4 0.972872 0.921300 0.817437
O O5 0.619726 0.635225 0.126343
O O6 0.669981 0.091053 0.073487
O O7 0.336942 0.563763 0.017490
O O8 0.500000 0.500000 0.500000
O O9 0.218760 0.551116 0.490396
O O10 0.325716 0.356250 0.612674
O O11 0.597262 0.922641 0.568780
O O12 0.192908 0.463829 0.764977
O O13 0.081824 0.344521 0.895133
O O14 0.970582 0.423598 0.638070
O O15 0.279545 0.944839 0.700242
O O16 0.601360 0.288272 0.622976
O O17 0.000000 0.500000 0.000000
#
# Coordination Sequence:
#
# PCOD9005277 Si02
#       8
#     2   2   2   2   2   2   2   2
#     4  11  24  42  63  91 126 164 209 257 312 371
#     4  11  25  43  66  94 125 164 207 254 312 372
#     4   9  18  38  62  87 125 165 208 258 311 367
#     4  12  24  40  64  93 125 164 208 256 312 372
#     4  11  24  41  63  93 128 165 211 259 311 373
#     4   9  20  38  61  90 124 166 208 256 312 370
#     4  11  25  46  67  93 128 162 205 258 311 373
#     4  10  21  38  61  90 124 164 208 260 313 366
#
# _framework density 22.778552000000001
#
# number of rings (size 3 to 8) (size 9 to 14) (size 15 to 20)
#    0.000    1.500    0.000    4.875    0.000    9.500 
#    0.000    5.625    0.000    0.000    0.000    0.000 
#    0.000    0.000    0.000    0.000    0.000    0.000 
#
# Total GULP energy -89555.211396 kJ/mol
# GULP energy per Si atom -5597.200712 kJ/mol
# Density = 2.272671 g / cm^3
# Si number density = 22.778552 Si / 1000 Ang^3
#
#
#
# Elastic Constant Matrix: (Units=GPa)
#
#
# Indices 1 2 3 4 5 6 
#
# 1 83.0613 20.2999 55.8063 -7.5564 32.3295 -3.1797
# 2 20.2999 61.9784 50.6689 2.4757 24.7833 -1.2119
# 3 55.8063 50.6689 157.1888 -1.7458 45.7117 -4.3856
# 4 -7.5564 2.4757 -1.7458 58.2866 -4.6753 -5.0509
# 5 32.3295 24.7833 45.7117 -4.6753 45.2439 -4.4864
# 6 -3.1797 -1.2119 -4.3856 -5.0509 -4.4864 20.0162
#
#
#
# Elastic Compliance Matrix: (Units=1/GPa)
#
#
# Indices 1 2 3 4 5 6 
#
# 1 0.018319 0.001024 -0.004096 0.001492 -0.009322 0.000362
# 2 0.001024 0.023856 -0.005668 -0.001904 -0.008469 -0.002014
# 3 -0.004096 -0.005668 0.011181 -0.000364 -0.005285 0.000180
# 4 0.001492 -0.001904 -0.000364 0.018091 0.002731 0.005219
# 5 -0.009322 -0.008469 -0.005285 0.002731 0.039662 0.006427
# 6 0.000362 -0.002014 0.000180 0.005219 0.006427 0.052692
#
#
# Mechanical properties :
#
#
# Convention : Reuss Voigt Hill
#
# Bulk Modulus (GPa) = 27.87374 61.75318 44.81346
# Shear Modulus (GPa) = 25.87449 36.40626 31.14037
#
# Velocity S-wave (km/s) = 3.37399 4.00217 3.70143
# Velocity P-wave (km/s) = 5.23849 6.96603 6.16309
#
# Compressibility (1/GPa) = 0.03587606
#
# Stress axis : x y z
#
# Youngs Moduli (GPa) = 54.58721 41.91787 89.43950
#
# Poissons Ratio (x) = -0.04292 0.36636
# Poissons Ratio (y) = -0.05589 0.50692
# Poissons Ratio (z) = 0.22360 0.23758
#
# Static dielectric constant tensor:
#      x y z
#    x 1.870200 -0.004390 0.024580 
#    y -0.004390 1.776220 0.000340 
#    z 0.024580 0.000340 1.869290 
# 
# From -- ./inp_files/53368.got.cif
#   From: 2010.05.17/outbox.cif.g08.bks.cpg/sg2_27_cif.got.tgz:53368.got - 2010.06.03 11:33:40.
