data_PCOD9005976
_publ_section_title
;
Structure prediction by ZEFSAII (Michael W. Deem and Ramdas Pophale) SiO2 
 PCOD9005976
Probable space group: P -1
;
_chemical_formula_sum "Si O2"
_cell_formula_units_Z 14
_cell_length_a 9.749858
_cell_length_b 9.486986
_cell_length_c 17.749099
_cell_angle_alpha 55.125490
_cell_angle_beta 54.821489
_cell_angle_gamma 29.676833
_cell_volume 654.008457
_symmetry_space_group_name_H-M "P -1"
_symmetry_group_IT_number 2
_symmetry_cell_setting 'triclinic'
loop_
_space_group_symop_operation_xyz
x,y,z
-x,-y,-z
loop_
_atom_site_type_symbol
_atom_site_label
_atom_site_fract_x
_atom_site_fract_y
_atom_site_fract_z
Si Si1 0.773889 0.558287 0.260266
Si Si2 0.691485 0.698082 0.068305
Si Si3 0.227891 0.925382 0.889013
Si Si4 0.339854 0.164755 0.281744
Si Si5 0.753853 0.221655 0.450151
Si Si6 0.626099 0.288920 0.938554
Si Si7 0.224307 0.190338 0.481970
O O1 0.720600 0.647090 0.163570
O O2 0.797943 0.337938 0.340325
O O3 0.066757 0.404011 0.241847
O O4 0.514966 0.850175 0.300664
O O5 0.508018 0.686172 0.100010
O O6 0.000000 0.500000 0.000000
O O7 0.500000 0.000000 0.000000
O O8 0.432300 0.874182 0.791639
O O9 0.360607 0.626171 0.941160
O O10 0.279056 0.928107 0.960692
O O11 0.912045 0.168811 0.882388
O O12 0.237157 0.241126 0.376015
O O13 0.500000 0.500000 0.500000
O O14 0.768765 0.024636 0.463158
O O15 0.000000 0.000000 0.500000
O O16 0.000000 0.500000 0.500000
O O17 0.500000 0.000000 0.500000
#
# Coordination Sequence:
#
# PCOD9005976 Si02
#       7
#     2   2   2   2   2   2   2
#     4  12  24  43  73 103 137 196 248 293 364 451
#     4  12  25  42  67 102 146 181 238 309 356 418
#     4  10  21  38  64  90 131 184 225 283 349 437
#     4  12  24  44  70 102 138 184 252 291 366 447
#     4  12  23  47  75 103 143 192 242 303 362 450
#     4  10  21  39  60  93 135 177 227 283 360 413
#     4  12  26  45  71 107 149 185 238 318 382 431
#
# _framework density 21.406452000000002
#
# number of rings (size 3 to 8) (size 9 to 14) (size 15 to 20)
#    0.000    0.571    2.857    6.000    0.000    3.429 
#    0.000    2.857    0.000    0.000    0.000    0.000 
#    0.000    0.000    0.000    0.000    0.000    0.000 
#
# Total GULP energy -78013.624541 kJ/mol
# GULP energy per Si atom -5572.401753 kJ/mol
# Density = 2.135773 g / cm^3
# Si number density = 21.406452 Si / 1000 Ang^3
#
#
#
# Elastic Constant Matrix: (Units=GPa)
#
#
# Indices 1 2 3 4 5 6 
#
# 1 157.8038 71.7616 56.4843 2.1725 26.5894 -12.6576
# 2 71.7616 176.2240 44.3821 4.2146 14.9959 -17.7910
# 3 56.4843 44.3821 145.0839 3.7350 13.0223 5.1878
# 4 2.1725 4.2146 3.7350 32.1933 -6.5839 1.2477
# 5 26.5894 14.9959 13.0223 -6.5839 31.4312 -7.4849
# 6 -12.6576 -17.7910 5.1878 1.2477 -7.4849 46.4813
#
#
#
# Elastic Compliance Matrix: (Units=1/GPa)
#
#
# Indices 1 2 3 4 5 6 
#
# 1 0.009447 -0.002638 -0.002351 -0.001241 -0.005798 0.000925
# 2 -0.002638 0.007335 -0.001238 -0.000806 -0.000404 0.002184
# 3 -0.002351 -0.001238 0.008441 -0.000908 -0.001655 -0.002298
# 4 -0.001241 -0.000806 -0.000908 0.033147 0.008747 -0.000026
# 5 -0.005798 -0.000404 -0.001655 0.008747 0.040562 0.004748
# 6 0.000925 0.002184 -0.002298 -0.000026 0.004748 0.023623
#
#
# Mechanical properties :
#
#
# Convention : Reuss Voigt Hill
#
# Bulk Modulus (GPa) = 78.32471 91.59640 84.96055
# Shear Modulus (GPa) = 35.90284 42.45342 39.17813
#
# Velocity S-wave (km/s) = 4.09980 4.45815 4.28273
# Velocity P-wave (km/s) = 7.68635 8.32960 8.01443
#
# Compressibility (1/GPa) = 0.01276736
#
# Stress axis : x y z
#
# Youngs Moduli (GPa) = 105.85807 136.33782 118.47292
#
# Poissons Ratio (x) = 0.35968 0.27858
# Poissons Ratio (y) = 0.27927 0.14664
# Poissons Ratio (z) = 0.24892 0.16875
#
# Static dielectric constant tensor:
#      x y z
#    x 1.866150 -0.054290 0.001340 
#    y -0.054290 1.624570 -0.000120 
#    z 0.001340 -0.000120 1.813940 
# 
# From -- ./inp_files/556972.got.cif
#   From: 2010.05.17/outbox.cif.g08.bks.cpg/sg2_279_cif.got.tgz:556972.got - 2010.06.03 11:33:40.
