data_PCOD9005892
_publ_section_title
;
Structure prediction by ZEFSAII (Michael W. Deem and Ramdas Pophale) SiO2 
 PCOD9005892
Probable space group: P -1
;
_chemical_formula_sum "Si O2"
_cell_formula_units_Z 14
_cell_length_a 12.677597
_cell_length_b 8.558712
_cell_length_c 9.341334
_cell_angle_alpha 111.334715
_cell_angle_beta 44.220098
_cell_angle_gamma 123.634929
_cell_volume 587.578255
_symmetry_space_group_name_H-M "P -1"
_symmetry_group_IT_number 2
_symmetry_cell_setting 'triclinic'
loop_
_space_group_symop_operation_xyz
x,y,z
-x,-y,-z
loop_
_atom_site_type_symbol
_atom_site_label
_atom_site_fract_x
_atom_site_fract_y
_atom_site_fract_z
Si Si1 0.353306 0.457572 0.357335
Si Si2 0.320655 0.992656 0.879091
Si Si3 0.807991 0.955812 0.666487
Si Si4 0.253011 0.283584 0.896362
Si Si5 0.145972 0.453365 0.281837
Si Si6 0.626569 0.147629 0.812227
Si Si7 0.197939 0.552103 0.811285
O O1 0.315104 0.243480 0.348989
O O2 0.552395 0.587891 0.200670
O O3 0.250608 0.430744 0.302947
O O4 0.262669 0.528715 0.585188
O O5 0.288026 0.776983 0.829851
O O6 0.250197 0.077913 0.848679
O O7 0.521512 0.118864 0.759944
O O8 0.238721 0.019884 0.116333
O O9 0.782635 0.100143 0.635456
O O10 0.000000 0.000000 0.500000
O O11 0.231864 0.397791 0.819174
O O12 0.116760 0.293141 0.143208
O O13 0.287717 0.645921 0.137407
O O14 0.000000 0.500000 0.500000
O O15 0.500000 0.000000 0.000000
O O16 0.000000 0.500000 0.000000
#
# Coordination Sequence:
#
# PCOD9005892 Si02
#       7
#     2   2   2   2   2   2   2
#     4  12  24  44  70 101 139 181 234 289 347 420
#     4  11  23  45  71  97 138 187 233 280 350 429
#     4  11  21  39  68 103 135 178 234 290 346 414
#     4  12  24  46  75  98 140 188 236 284 354 429
#     4  12  23  42  71 109 142 177 232 302 352 409
#     4  10  21  38  64 100 137 178 227 286 344 413
#     4  12  28  49  67 102 147 183 230 297 361 418
#
# _framework density 23.826612000000001
#
# number of rings (size 3 to 8) (size 9 to 14) (size 15 to 20)
#    0.000    0.571    2.857    7.714    0.000    1.143 
#    2.571    0.000    0.000    0.000    0.000    0.000 
#    0.000    0.000    0.000    0.000    0.000    0.000 
#
# Total GULP energy -78115.292628 kJ/mol
# GULP energy per Si atom -5579.663759 kJ/mol
# Density = 2.377238 g / cm^3
# Si number density = 23.826612 Si / 1000 Ang^3
#
#
#
# Elastic Constant Matrix: (Units=GPa)
#
#
# Indices 1 2 3 4 5 6 
#
# 1 81.3795 11.7016 -13.5398 -7.7512 -16.9709 -39.8704
# 2 11.7016 104.1489 9.6746 11.7356 7.5259 -28.1588
# 3 -13.5398 9.6746 86.5033 8.8286 -3.9424 -1.3602
# 4 -7.7512 11.7356 8.8286 28.6257 3.4144 -3.2856
# 5 -16.9709 7.5259 -3.9424 3.4144 28.9864 3.5655
# 6 -39.8704 -28.1588 -1.3602 -3.2856 3.5655 40.4729
#
#
#
# Elastic Compliance Matrix: (Units=1/GPa)
#
#
# Indices 1 2 3 4 5 6 
#
# 1 0.033587 0.003196 0.005233 0.008478 0.014252 0.034919
# 2 0.003196 0.013121 -0.000641 -0.002567 -0.002833 0.012297
# 3 0.005233 -0.000641 0.012979 -0.002365 0.004716 0.004538
# 4 0.008478 -0.002567 -0.002365 0.040212 -0.000634 0.009807
# 5 0.014252 -0.002833 0.004716 -0.000634 0.043266 0.008365
# 6 0.034919 0.012297 0.004538 0.009807 0.008365 0.067875
#
#
# Mechanical properties :
#
#
# Convention : Reuss Voigt Hill
#
# Bulk Modulus (GPa) = 13.28676 31.96716 22.62696
# Shear Modulus (GPa) = 22.67051 37.23001 29.95026
#
# Velocity S-wave (km/s) = 3.08795 3.95718 3.54928
# Velocity P-wave (km/s) = 4.27814 5.85874 5.12968
#
# Compressibility (1/GPa) = 0.07526287
#
# Stress axis : x y z
#
# Youngs Moduli (GPa) = 29.77337 76.21538 77.04955
#
# Poissons Ratio (x) = -0.24360 -0.40320
# Poissons Ratio (y) = -0.09516 0.04939
# Poissons Ratio (z) = -0.15580 0.04885
#
# Static dielectric constant tensor:
#      x y z
#    x 2.155330 0.074030 -0.011270 
#    y 0.074030 2.425850 0.023730 
#    z -0.011270 0.023730 1.951140 
# 
# From -- ./inp_files/174103.got.cif
#   From: 2010.05.17/outbox.cif.g08.bks.cpg/sg2_88_cif.got.tgz:174103.got - 2010.06.03 11:33:40.
