data_PCOD9005449
_publ_section_title
;
Structure prediction by ZEFSAII (Michael W. Deem and Ramdas Pophale) SiO2 
 PCOD9005449
Probable space group: P -1
;
_chemical_formula_sum "Si O2"
_cell_formula_units_Z 16
_cell_length_a 11.976752
_cell_length_b 12.013371
_cell_length_c 21.163121
_cell_angle_alpha 34.326003
_cell_angle_beta 30.554589
_cell_angle_gamma 53.840463
_cell_volume 791.123541
_symmetry_space_group_name_H-M "P -1"
_symmetry_group_IT_number 2
_symmetry_cell_setting 'triclinic'
loop_
_space_group_symop_operation_xyz
x,y,z
-x,-y,-z
loop_
_atom_site_type_symbol
_atom_site_label
_atom_site_fract_x
_atom_site_fract_y
_atom_site_fract_z
Si Si1 0.876152 0.910891 0.676986
Si Si2 0.317635 0.091073 0.014245
Si Si3 0.907658 0.282090 0.922027
Si Si4 0.718979 0.847308 0.141954
Si Si5 0.969674 0.369167 0.641421
Si Si6 0.524158 0.613324 0.092928
Si Si7 0.804008 0.351053 0.484866
Si Si8 0.389479 0.195973 0.271059
O O1 0.733653 0.777375 0.747284
O O2 0.854151 0.141865 0.576368
O O3 0.726384 0.777800 0.871134
O O4 0.163372 0.973796 0.508304
O O5 0.358644 0.144711 0.895751
O O6 0.362488 0.307468 0.930212
O O7 0.064231 0.874966 0.242724
O O8 0.500000 0.000000 0.000000
O O9 0.105992 0.271493 0.878470
O O10 0.021980 0.505355 0.722467
O O11 0.651828 0.219993 0.110055
O O12 0.861170 0.093379 0.981551
O O13 0.478240 0.738273 0.352661
O O14 0.161356 0.500907 0.539047
O O15 0.000000 0.500000 0.500000
O O16 0.722079 0.353164 0.802347
O O17 0.443548 0.374356 0.215752
#
# Coordination Sequence:
#
# PCOD9005449 Si02
#       8
#     2   2   2   2   2   2   2   2
#     4  11  23  36  60  94 129 157 202 257 302 366
#     4  10  21  38  62  89 122 156 196 257 309 356
#     4  11  25  40  63  86 125 170 206 251 299 372
#     4  11  23  44  60  90 125 160 209 254 306 362
#     4  11  20  34  58  95 126 156 192 251 317 362
#     4  11  22  38  58  90 126 161 198 249 314 362
#     4  12  20  37  62  92 122 158 206 250 314 357
#     4  11  24  38  59  90 125 167 206 246 309 359
#
# _framework density 20.224402999999999
#
# number of rings (size 3 to 8) (size 9 to 14) (size 15 to 20)
#    0.000    1.000    3.750    5.250    3.500    0.000 
#    0.000    0.625    0.000    0.750    0.000    0.000 
#    0.000    0.000    0.000    0.000    0.000    0.000 
#
# Total GULP energy -89245.824715 kJ/mol
# GULP energy per Si atom -5577.864045 kJ/mol
# Density = 2.017837 g / cm^3
# Si number density = 20.224403 Si / 1000 Ang^3
#
#
#
# Elastic Constant Matrix: (Units=GPa)
#
#
# Indices 1 2 3 4 5 6 
#
# 1 67.4643 26.0499 20.8113 2.4937 -5.1256 11.5265
# 2 26.0499 57.1677 9.4961 -12.9354 -11.7910 17.7323
# 3 20.8113 9.4961 124.9959 13.7912 -4.5202 -10.6806
# 4 2.4937 -12.9354 13.7912 40.2433 7.2665 -11.6397
# 5 -5.1256 -11.7910 -4.5202 7.2665 23.7556 1.7317
# 6 11.5265 17.7323 -10.6806 -11.6397 1.7317 31.3429
#
#
#
# Elastic Compliance Matrix: (Units=1/GPa)
#
#
# Indices 1 2 3 4 5 6 
#
# 1 0.019845 -0.007463 -0.002640 -0.004772 0.001962 -0.005856
# 2 -0.007463 0.028842 -0.002149 0.004474 0.011897 -0.013301
# 3 -0.002640 -0.002149 0.009279 -0.002550 0.000591 0.004369
# 4 -0.004772 0.004474 -0.002550 0.032432 -0.010013 0.010952
# 5 0.001962 0.011897 0.000591 -0.010013 0.052611 -0.013876
# 6 -0.005856 -0.013301 0.004369 0.010952 -0.013876 0.047906
#
#
# Mechanical properties :
#
#
# Convention : Reuss Voigt Hill
#
# Bulk Modulus (GPa) = 29.88411 40.26028 35.07220
# Shear Modulus (GPa) = 22.06812 31.95308 27.01060
#
# Velocity S-wave (km/s) = 3.30686 3.97914 3.65848
# Velocity P-wave (km/s) = 5.42114 6.40792 5.93507
#
# Compressibility (1/GPa) = 0.03346260
#
# Stress axis : x y z
#
# Youngs Moduli (GPa) = 50.39160 34.67197 107.76937
#
# Poissons Ratio (x) = 0.25875 0.28451
# Poissons Ratio (y) = 0.37606 0.23155
# Poissons Ratio (z) = 0.13304 0.07449
#
# Static dielectric constant tensor:
#      x y z
#    x 1.728850 0.020590 -0.034420 
#    y 0.020590 1.787360 -0.018210 
#    z -0.034420 -0.018210 1.791010 
# 
# From -- ./inp_files/595096.got.cif
#   From: 2010.05.17/outbox.cif.g08.bks.cpg/sg2_298_cif.got.tgz:595096.got - 2010.06.03 11:33:40.
