data_PCOD9005078
_publ_section_title
;
Structure prediction by ZEFSAII (Michael W. Deem and Ramdas Pophale) SiO2 
 PCOD9005078
Probable space group: P -1
;
_chemical_formula_sum "Si O2"
_cell_formula_units_Z 16
_cell_length_a 12.087727
_cell_length_b 14.475721
_cell_length_c 6.710334
_cell_angle_alpha 86.151237
_cell_angle_beta 108.086410
_cell_angle_gamma 144.514960
_cell_volume 610.136248
_symmetry_space_group_name_H-M "P -1"
_symmetry_group_IT_number 2
_symmetry_cell_setting 'triclinic'
loop_
_space_group_symop_operation_xyz
x,y,z
-x,-y,-z
loop_
_atom_site_type_symbol
_atom_site_label
_atom_site_fract_x
_atom_site_fract_y
_atom_site_fract_z
Si Si1 0.840366 0.892359 0.666231
Si Si2 0.718636 0.771681 0.063271
Si Si3 0.821674 0.099450 0.641955
Si Si4 0.053688 0.691862 0.006574
Si Si5 0.284179 0.439602 0.750182
Si Si6 0.625015 0.427623 0.628392
Si Si7 0.811576 0.361672 0.576084
Si Si8 0.676684 0.124802 0.244431
O O1 0.625511 0.729628 0.442206
O O2 0.839578 0.002638 0.673681
O O3 0.793529 0.817701 0.867030
O O4 0.093910 0.043854 0.748906
O O5 0.708646 0.660200 0.151763
O O6 0.468302 0.628362 0.917053
O O7 0.669815 0.028121 0.389216
O O8 0.807342 0.132894 0.847349
O O9 0.037726 0.298224 0.664633
O O10 0.103550 0.636542 0.181126
O O11 0.806407 0.557010 0.877409
O O12 0.120492 0.724225 0.809394
O O13 0.326178 0.466970 0.533652
O O14 0.680459 0.364463 0.570043
O O15 0.660094 0.193340 0.389579
O O16 0.000000 0.500000 0.500000
O O17 0.500000 0.000000 0.000000
#
# Coordination Sequence:
#
# PCOD9005078 Si02
#       8
#     2   2   2   2   2   2   2   2
#     4   9  19  32  60  94 113 148 202 246 300 353
#     4   8  16  33  61  88 114 152 189 243 313 353
#     4  10  21  38  60  90 120 157 206 238 291 360
#     4  11  23  39  59  83 126 166 198 242 295 347
#     4   9  16  35  61  86 115 154 198 236 299 370
#     4  11  20  35  59  88 119 160 202 243 290 349
#     4  11  23  39  58  86 122 159 209 243 286 349
#     4  11  25  39  58  86 123 165 201 244 296 341
#
# _framework density 26.223651
#
# number of rings (size 3 to 8) (size 9 to 14) (size 15 to 20)
#    0.000    2.000    2.500    1.125    3.500    1.000 
#    0.000    0.000    0.000   28.500    0.000    0.000 
#    0.000    0.000    0.000    0.000    0.000    0.000 
#
# Total GULP energy -89370.011641 kJ/mol
# GULP energy per Si atom -5585.625728 kJ/mol
# Density = 2.616396 g / cm^3
# Si number density = 26.223651 Si / 1000 Ang^3
#
#
#
# Elastic Constant Matrix: (Units=GPa)
#
#
# Indices 1 2 3 4 5 6 
#
# 1 53.9016 23.3065 31.9179 -16.2393 -0.8875 -10.3483
# 2 23.3065 138.4042 53.9121 0.9355 14.5915 28.5959
# 3 31.9179 53.9121 183.3395 13.8837 21.9928 -6.6148
# 4 -16.2393 0.9355 13.8837 60.7286 5.2961 15.0979
# 5 -0.8875 14.5915 21.9928 5.2961 37.3578 -4.4612
# 6 -10.3483 28.5959 -6.6148 15.0979 -4.4612 46.5497
#
#
#
# Elastic Compliance Matrix: (Units=1/GPa)
#
#
# Indices 1 2 3 4 5 6 
#
# 1 0.026077 -0.004814 -0.003895 0.005840 0.004773 0.006764
# 2 -0.004814 0.011411 -0.002457 0.001844 -0.004516 -0.009460
# 3 -0.003895 -0.002457 0.007516 -0.003082 -0.002829 0.002440
# 4 0.005840 0.001844 -0.003082 0.020729 -0.002571 -0.007242
# 5 0.004773 -0.004516 -0.002829 -0.002571 0.031546 0.007291
# 6 0.006764 -0.009460 0.002440 -0.007242 0.007291 0.032192
#
#
# Mechanical properties :
#
#
# Convention : Reuss Voigt Hill
#
# Bulk Modulus (GPa) = 44.10687 65.99092 55.04890
# Shear Modulus (GPa) = 31.37547 46.69447 39.03497
#
# Velocity S-wave (km/s) = 3.46274 4.22432 3.86235
# Velocity P-wave (km/s) = 5.73092 7.00089 6.39750
#
# Compressibility (1/GPa) = 0.02267220
#
# Stress axis : x y z
#
# Youngs Moduli (GPa) = 38.34798 87.63385 133.05731
#
# Poissons Ratio (x) = 0.42190 0.51823
# Poissons Ratio (y) = 0.18462 0.32687
# Poissons Ratio (z) = 0.14936 0.21528
#
# Static dielectric constant tensor:
#      x y z
#    x 2.088140 0.133930 -0.007530 
#    y 0.133930 2.202420 0.074890 
#    z -0.007530 0.074890 2.123310 
# 
# From -- ./inp_files/89953.got.cif
#   From: 2010.05.17/outbox.cif.g08.bks.cpg/sg2_45_cif.got.tgz:89953.got - 2010.06.03 11:33:40.
