data_PCOD9005749
_publ_section_title
;
Structure prediction by ZEFSAII (Michael W. Deem and Ramdas Pophale) SiO2 
 PCOD9005749
Probable space group: P -1
;
_chemical_formula_sum "Si O2"
_cell_formula_units_Z 16
_cell_length_a 20.319934
_cell_length_b 5.403976
_cell_length_c 9.457987
_cell_angle_alpha 94.549181
_cell_angle_beta 52.062072
_cell_angle_gamma 113.357704
_cell_volume 732.317518
_symmetry_space_group_name_H-M "P -1"
_symmetry_group_IT_number 2
_symmetry_cell_setting 'triclinic'
loop_
_space_group_symop_operation_xyz
x,y,z
-x,-y,-z
loop_
_atom_site_type_symbol
_atom_site_label
_atom_site_fract_x
_atom_site_fract_y
_atom_site_fract_z
Si Si1 0.085297 0.381025 0.521951
Si Si2 0.403507 0.937596 0.939693
Si Si3 0.465167 0.592637 0.409267
Si Si4 0.006899 0.771311 0.078124
Si Si5 0.559476 0.759983 0.830973
Si Si6 0.788244 0.024814 0.067452
Si Si7 0.872402 0.082845 0.666899
Si Si8 0.312847 0.611417 0.778659
O O1 0.129257 0.701059 0.436171
O O2 0.071227 0.325056 0.703239
O O3 0.979240 0.237485 0.592622
O O4 0.138191 0.212143 0.384135
O O5 0.490107 0.876495 0.866179
O O6 0.337637 0.692256 0.914254
O O7 0.445614 0.193904 0.785850
O O8 0.372666 0.019367 0.133382
O O9 0.500000 0.500000 0.500000
O O10 0.410698 0.356443 0.352157
O O11 0.400841 0.726337 0.562477
O O12 0.000000 0.500000 0.000000
O O13 0.108658 0.905320 0.017029
O O14 0.000000 0.000000 0.000000
O O15 0.500000 0.500000 0.000000
O O16 0.725637 0.718021 0.191169
O O17 0.755347 0.254262 0.166650
O O18 0.798260 0.038959 0.884945
#
# Coordination Sequence:
#
# PCOD9005749 Si02
#       8
#     2   2   2   2   2   2   2   2
#     4   9  17  31  61  87 105 146 193 257 291 347
#     4  10  21  38  63  92 123 171 225 271 320 377
#     4  11  21  37  64  97 123 172 231 272 307 383
#     4  11  22  40  67  91 125 164 213 255 314 390
#     4   9  20  37  62  89 122 157 224 270 316 366
#     4  11  25  40  61  96 126 168 202 267 335 384
#     4   9  17  34  56  85 115 139 200 245 302 360
#     4  12  24  38  65  92 137 166 215 271 334 381
#
# _framework density 21.848448000000001
#
# number of rings (size 3 to 8) (size 9 to 14) (size 15 to 20)
#    0.000    1.750    1.250    3.375    3.500    4.000 
#    0.000    0.000   11.000    1.500    0.000    0.000 
#    0.000    0.000    0.000    0.000    0.000    0.000 
#
# Total GULP energy -89311.922216 kJ/mol
# GULP energy per Si atom -5581.995139 kJ/mol
# Density = 2.179872 g / cm^3
# Si number density = 21.848448 Si / 1000 Ang^3
#
#
#
# Elastic Constant Matrix: (Units=GPa)
#
#
# Indices 1 2 3 4 5 6 
#
# 1 74.7666 21.6164 32.8667 2.8798 20.9900 -26.6477
# 2 21.6164 65.4475 23.9564 4.5523 15.4085 -22.2844
# 3 32.8667 23.9564 101.1780 20.5354 13.0201 -19.9912
# 4 2.8798 4.5523 20.5354 42.2463 -4.9172 5.2577
# 5 20.9900 15.4085 13.0201 -4.9172 35.9094 -0.1138
# 6 -26.6477 -22.2844 -19.9912 5.2577 -0.1138 45.6762
#
#
#
# Elastic Compliance Matrix: (Units=1/GPa)
#
#
# Indices 1 2 3 4 5 6 
#
# 1 0.022715 0.001323 -0.002659 -0.003582 -0.013330 0.013113
# 2 0.001323 0.021909 -0.001089 -0.004557 -0.010367 0.011483
# 3 -0.002659 -0.001089 0.014057 -0.007626 -0.004104 0.004937
# 4 -0.003582 -0.004557 -0.007626 0.030782 0.010994 -0.011167
# 5 -0.013330 -0.010367 -0.004104 0.010994 0.043032 -0.015789
# 6 0.013113 0.011483 0.004937 -0.011167 -0.015789 0.038552
#
#
# Mechanical properties :
#
#
# Convention : Reuss Voigt Hill
#
# Bulk Modulus (GPa) = 18.57686 44.25234 31.41460
# Shear Modulus (GPa) = 25.79447 35.62990 30.71218
#
# Velocity S-wave (km/s) = 3.43973 4.04267 3.75332
# Velocity P-wave (km/s) = 4.92917 6.48761 5.76133
#
# Compressibility (1/GPa) = 0.05383040
#
# Stress axis : x y z
#
# Youngs Moduli (GPa) = 44.02351 45.64427 71.14090
#
# Poissons Ratio (x) = -0.06040 0.18914
# Poissons Ratio (y) = -0.05825 0.07751
# Poissons Ratio (z) = 0.11704 0.04973
#
# Static dielectric constant tensor:
#      x y z
#    x 1.733090 -0.139130 0.043640 
#    y -0.139130 1.530480 0.111220 
#    z 0.043640 0.111220 1.782450 
# 
# From -- ./inp_files/137945.got.cif
#   From: 2010.05.17/outbox.cif.g08.bks.cpg/sg2_69_cif.got.tgz:137945.got - 2010.06.03 11:33:40.
