data_PCOD9005635
_publ_section_title
;
Structure prediction by ZEFSAII (Michael W. Deem and Ramdas Pophale) SiO2 
 PCOD9005635
Probable space group: P -1
;
_chemical_formula_sum "Si O2"
_cell_formula_units_Z 16
_cell_length_a 11.234528
_cell_length_b 9.275910
_cell_length_c 19.780776
_cell_angle_alpha 106.348249
_cell_angle_beta 150.644141
_cell_angle_gamma 93.339466
_cell_volume 740.728594
_symmetry_space_group_name_H-M "P -1"
_symmetry_group_IT_number 2
_symmetry_cell_setting 'triclinic'
loop_
_space_group_symop_operation_xyz
x,y,z
-x,-y,-z
loop_
_atom_site_type_symbol
_atom_site_label
_atom_site_fract_x
_atom_site_fract_y
_atom_site_fract_z
Si Si1 0.717368 0.691479 0.002847
Si Si2 0.460261 0.452625 0.323557
Si Si3 0.144982 0.343206 0.331600
Si Si4 0.522100 0.849782 0.032995
Si Si5 0.899463 0.441479 0.020426
Si Si6 0.593459 0.983393 0.234348
Si Si7 0.003352 0.945637 0.892730
Si Si8 0.159779 0.417462 0.600878
O O1 0.703812 0.790738 0.075622
O O2 0.847290 0.575290 0.052150
O O3 0.348305 0.533626 0.776680
O O4 0.919139 0.855508 0.064840
O O5 0.774494 0.615059 0.543957
O O6 0.564568 0.511815 0.306443
O O7 0.298430 0.227858 0.234594
O O8 0.175440 0.455422 0.195414
O O9 0.500000 0.500000 0.500000
O O10 0.854707 0.338691 0.171238
O O11 0.045670 0.155450 0.216992
O O12 0.658923 0.942614 0.186559
O O13 0.500000 0.000000 0.000000
O O14 0.577226 0.215248 0.834371
O O15 0.000000 0.500000 0.000000
O O16 0.320524 0.001103 0.089514
O O17 0.898643 0.183271 0.444037
O O18 0.000000 0.500000 0.500000
#
# Coordination Sequence:
#
# PCOD9005635 Si02
#       8
#     2   2   2   2   2   2   2   2
#     4  12  23  38  64  95 128 165 217 262 311 381
#     4  10  21  38  63  85 126 168 204 260 317 373
#     4   9  17  33  61  92 119 153 202 255 321 361
#     4  11  19  39  69  96 126 157 207 273 324 366
#     4  11  25  46  59  87 134 182 210 249 319 391
#     4  10  22  40  68  90 127 170 203 262 329 373
#     4   9  19  37  62  93 119 160 208 262 314 367
#     4  12  22  36  64 100 118 155 227 269 312 367
#
# _framework density 21.600355
#
# number of rings (size 3 to 8) (size 9 to 14) (size 15 to 20)
#    0.000    1.500    5.000    2.250    0.000    2.500 
#    0.000    0.625    0.000    0.000    0.000    0.000 
#    0.000    0.000    0.000    0.000    0.000    0.000 
#
# Total GULP energy -89235.930601 kJ/mol
# GULP energy per Si atom -5577.245663 kJ/mol
# Density = 2.155119 g / cm^3
# Si number density = 21.600355 Si / 1000 Ang^3
#
#
#
# Elastic Constant Matrix: (Units=GPa)
#
#
# Indices 1 2 3 4 5 6 
#
# 1 76.7355 25.7417 2.9400 16.4200 3.3243 0.9983
# 2 25.7417 96.2459 19.2942 23.1925 16.9326 -5.5907
# 3 2.9400 19.2942 78.5805 19.3365 4.2882 6.0639
# 4 16.4200 23.1925 19.3365 31.9289 4.0514 12.8862
# 5 3.3243 16.9326 4.2882 4.0514 37.6260 0.1816
# 6 0.9983 -5.5907 6.0639 12.8862 0.1816 33.6043
#
#
#
# Elastic Compliance Matrix: (Units=1/GPa)
#
#
# Indices 1 2 3 4 5 6 
#
# 1 0.015494 -0.002541 0.001859 -0.008056 0.000421 0.001868
# 2 -0.002541 0.015432 -0.001140 -0.011463 -0.005391 0.007273
# 3 0.001859 -0.001140 0.015266 -0.009604 -0.000360 0.000685
# 4 -0.008056 -0.011463 -0.009604 0.058544 0.000769 -0.022388
# 5 0.000421 -0.005391 -0.000360 0.000769 0.028931 -0.001296
# 6 0.001868 0.007273 0.000685 -0.022388 -0.001296 0.039381
#
#
# Mechanical properties :
#
#
# Convention : Reuss Voigt Hill
#
# Bulk Modulus (GPa) = 23.50274 38.61264 31.05769
# Shear Modulus (GPa) = 26.19524 34.20424 30.19974
#
# Velocity S-wave (km/s) = 3.48619 3.98364 3.74319
# Velocity P-wave (km/s) = 5.20664 6.25092 5.75252
#
# Compressibility (1/GPa) = 0.04254823
#
# Stress axis : x y z
#
# Youngs Moduli (GPa) = 64.54008 64.80250 65.50365
#
# Poissons Ratio (x) = 0.16467 -0.12180
# Poissons Ratio (y) = 0.16401 0.07469
# Poissons Ratio (z) = -0.12001 0.07389
#
# Static dielectric constant tensor:
#      x y z
#    x 1.878280 0.019570 0.012160 
#    y 0.019570 1.816080 0.020110 
#    z 0.012160 0.020110 1.880020 
# 
# From -- ./inp_files/445912.got.cif
#   From: 2010.05.17/outbox.cif.g08.bks.cpg/sg2_223_cif.got.tgz:445912.got - 2010.06.03 11:33:40.
