data_PCOD9005400
_publ_section_title
;
Structure prediction by ZEFSAII (Michael W. Deem and Ramdas Pophale) SiO2 
 PCOD9005400
Probable space group: P -1
;
_chemical_formula_sum "Si O2"
_cell_formula_units_Z 16
_cell_length_a 19.637369
_cell_length_b 6.883274
_cell_length_c 19.026565
_cell_angle_alpha 49.247936
_cell_angle_beta 159.521149
_cell_angle_gamma 125.419592
_cell_volume 676.640886
_symmetry_space_group_name_H-M "P -1"
_symmetry_group_IT_number 2
_symmetry_cell_setting 'triclinic'
loop_
_space_group_symop_operation_xyz
x,y,z
-x,-y,-z
loop_
_atom_site_type_symbol
_atom_site_label
_atom_site_fract_x
_atom_site_fract_y
_atom_site_fract_z
Si Si1 0.419477 0.626397 0.006347
Si Si2 0.060995 0.906886 0.658865
Si Si3 0.320749 0.292037 0.444531
Si Si4 0.708409 0.878446 0.054939
Si Si5 0.640827 0.863625 0.271096
Si Si6 0.985979 0.038862 0.791855
Si Si7 0.736309 0.456540 0.817495
Si Si8 0.990962 0.279629 0.887931
O O1 0.397075 0.371351 0.003025
O O2 0.400836 0.869695 0.877649
O O3 0.232165 0.676501 0.865552
O O4 0.605292 0.644080 0.231964
O O5 0.158809 0.119930 0.746936
O O6 0.861920 0.840018 0.517181
O O7 0.000000 0.000000 0.500000
O O8 0.544554 0.313598 0.673954
O O9 0.308343 0.343191 0.336318
O O10 0.222815 0.029077 0.422912
O O11 0.190023 0.525271 0.303292
O O12 0.864643 0.903433 0.138530
O O13 0.529676 0.102883 0.844271
O O14 0.973444 0.232189 0.799227
O O15 0.089757 0.761438 0.986037
O O16 0.816534 0.592544 0.931124
O O17 0.000000 0.000000 0.000000
#
# Coordination Sequence:
#
# PCOD9005400 Si02
#       8
#     2   2   2   2   2   2   2   2
#     4   9  19  36  59  88 112 147 193 237 289 345
#     4   9  20  38  60  85 112 148 192 241 285 343
#     4  10  21  38  62  86 112 151 197 242 286 342
#     4  11  23  36  57  85 119 155 190 240 294 345
#     4   9  19  37  59  82 114 148 192 239 284 346
#     4  11  23  39  54  83 124 154 190 241 295 340
#     4  10  21  38  62  86 111 151 197 241 288 342
#     4  11  19  36  60  87 116 150 191 241 285 341
#
# _framework density 23.646222000000002
#
# number of rings (size 3 to 8) (size 9 to 14) (size 15 to 20)
#    0.000    2.000    2.500    1.875    0.000    9.500 
#    0.000    0.000    0.000    0.000    0.000    0.000 
#    0.000    0.000    0.000    0.000    0.000    0.000 
#
# Total GULP energy -89401.121425 kJ/mol
# GULP energy per Si atom -5587.570089 kJ/mol
# Density = 2.359240 g / cm^3
# Si number density = 23.646222 Si / 1000 Ang^3
#
#
#
# Elastic Constant Matrix: (Units=GPa)
#
#
# Indices 1 2 3 4 5 6 
#
# 1 110.6853 30.2197 23.2704 20.2350 14.7721 -18.3396
# 2 30.2197 120.3485 40.7019 41.1706 -5.9164 -33.0257
# 3 23.2704 40.7019 111.1478 49.5824 26.1626 -14.5235
# 4 20.2350 41.1706 49.5824 38.1192 5.4223 -5.1570
# 5 14.7721 -5.9164 26.1626 5.4223 28.0512 3.6194
# 6 -18.3396 -33.0257 -14.5235 -5.1570 3.6194 42.2379
#
#
#
# Elastic Compliance Matrix: (Units=1/GPa)
#
#
# Indices 1 2 3 4 5 6 
#
# 1 0.012730 0.000878 0.007049 -0.014192 -0.011367 0.007879
# 2 0.000878 0.019861 0.007921 -0.030238 0.000259 0.014920
# 3 0.007049 0.007921 0.039613 -0.056999 -0.030359 0.018517
# 4 -0.014192 -0.030238 -0.056999 0.130867 0.033646 -0.036309
# 5 -0.011367 0.000259 -0.030359 0.033646 0.065655 -0.016690
# 6 0.007879 0.014920 0.018517 -0.036309 -0.016690 0.042127
#
#
# Mechanical properties :
#
#
# Convention : Reuss Voigt Hill
#
# Bulk Modulus (GPa) = 9.62464 58.95173 34.28818
# Shear Modulus (GPa) = 15.93419 38.21431 27.07425
#
# Velocity S-wave (km/s) = 2.59869 4.02442 3.38741
# Velocity P-wave (km/s) = 3.61709 6.82491 5.46181
#
# Compressibility (1/GPa) = 0.10389998
#
# Stress axis : x y z
#
# Youngs Moduli (GPa) = 78.55534 50.34875 25.24409
#
# Poissons Ratio (x) = -0.04419 -0.17796
# Poissons Ratio (y) = -0.06894 -0.19995
# Poissons Ratio (z) = -0.55377 -0.39879
#
# Static dielectric constant tensor:
#      x y z
#    x 1.966650 0.034070 0.007590 
#    y 0.034070 1.876410 0.016830 
#    z 0.007590 0.016830 1.909680 
# 
# From -- ./inp_files/57051.got.cif
#   From: 2010.05.17/outbox.cif.g08.bks.cpg/sg2_29_cif.got.tgz:57051.got - 2010.06.03 11:33:40.
