data_PCOD9005808
_publ_section_title
;
Structure prediction by ZEFSAII (Michael W. Deem and Ramdas Pophale) SiO2 
 PCOD9005808
Probable space group: P -1
;
_chemical_formula_sum "Si O2"
_cell_formula_units_Z 16
_cell_length_a 11.895237
_cell_length_b 12.442695
_cell_length_c 9.155562
_cell_angle_alpha 123.238846
_cell_angle_beta 125.592102
_cell_angle_gamma 92.321928
_cell_volume 782.360321
_symmetry_space_group_name_H-M "P -1"
_symmetry_group_IT_number 2
_symmetry_cell_setting 'triclinic'
loop_
_space_group_symop_operation_xyz
x,y,z
-x,-y,-z
loop_
_atom_site_type_symbol
_atom_site_label
_atom_site_fract_x
_atom_site_fract_y
_atom_site_fract_z
Si Si1 0.948214 0.748743 0.032389
Si Si2 0.765812 0.384184 0.327457
Si Si3 0.149148 0.976850 0.568053
Si Si4 0.814642 0.968601 0.043810
Si Si5 0.179985 0.569877 0.258170
Si Si6 0.013533 0.716654 0.740797
Si Si7 0.482957 0.843217 0.529453
Si Si8 0.458772 0.140108 0.752713
O O1 0.883028 0.858462 0.029344
O O2 0.066995 0.814351 0.309558
O O3 0.806601 0.578781 0.831882
O O4 0.042006 0.747804 0.958308
O O5 0.802001 0.377014 0.520206
O O6 0.837542 0.561501 0.478505
O O7 0.864765 0.327910 0.266983
O O8 0.582765 0.270625 0.053466
O O9 0.225750 0.996423 0.799186
O O10 0.279075 0.089853 0.633178
O O11 0.000000 0.000000 0.500000
O O12 0.651373 0.886307 0.765318
O O13 0.947413 0.129621 0.192604
O O14 0.324352 0.699777 0.370486
O O15 0.000000 0.500000 0.000000
O O16 0.498884 0.814580 0.349878
O O17 0.469338 0.989890 0.656348
#
# Coordination Sequence:
#
# PCOD9005808 Si02
#       8
#     2   2   2   2   2   2   2   2
#     4  10  23  41  62  91 130 172 213 260 318 390
#     4  10  23  38  63  97 132 163 211 273 320 375
#     4  10  23  40  65  92 128 170 211 263 316 386
#     4  11  22  40  65  92 126 172 217 256 323 388
#     4  11  25  40  65  96 128 169 213 266 327 379
#     4  10  21  38  63  94 127 170 209 260 326 371
#     4  11  25  38  66  95 125 173 210 274 319 375
#     4  11  23  41  63  97 132 159 222 268 320 376
#
# _framework density 20.450934
#
# number of rings (size 3 to 8) (size 9 to 14) (size 15 to 20)
#    0.000    1.500    1.250    2.625   10.500    2.500 
#    0.000    1.250    0.000    9.000    0.000    0.000 
#    0.000    0.000    0.000    0.000    0.000    0.000 
#
# Total GULP energy -89336.436666 kJ/mol
# GULP energy per Si atom -5583.527292 kJ/mol
# Density = 2.040439 g / cm^3
# Si number density = 20.450934 Si / 1000 Ang^3
#
#
#
# Elastic Constant Matrix: (Units=GPa)
#
#
# Indices 1 2 3 4 5 6 
#
# 1 106.5515 42.6737 67.0437 4.0462 -4.7267 27.7720
# 2 42.6737 118.8672 56.9502 15.8779 1.3959 21.9569
# 3 67.0437 56.9502 151.3104 3.9983 -12.8496 13.8743
# 4 4.0462 15.8779 3.9983 30.9801 5.0363 3.4528
# 5 -4.7267 1.3959 -12.8496 5.0363 38.1196 -0.7929
# 6 27.7720 21.9569 13.8743 3.4528 -0.7929 30.8842
#
#
#
# Elastic Compliance Matrix: (Units=1/GPa)
#
#
# Indices 1 2 3 4 5 6 
#
# 1 0.016469 -0.001028 -0.005886 0.000449 -0.000203 -0.011490
# 2 -0.001028 0.012207 -0.003603 -0.004823 -0.001269 -0.005629
# 3 -0.005886 -0.003603 0.010524 0.000425 0.002959 0.003155
# 4 0.000449 -0.004823 0.000425 0.035481 -0.004338 -0.001243
# 5 -0.000203 -0.001269 0.002959 -0.004338 0.027845 0.000955
# 6 -0.011490 -0.005629 0.003155 -0.001243 0.000955 0.045459
#
#
# Mechanical properties :
#
#
# Convention : Reuss Voigt Hill
#
# Bulk Modulus (GPa) = 55.04728 78.89604 66.97166
# Shear Modulus (GPa) = 28.55931 34.00089 31.28010
#
# Velocity S-wave (km/s) = 3.74100 4.08187 3.91515
# Velocity P-wave (km/s) = 6.75539 7.80241 7.29770
#
# Compressibility (1/GPa) = 0.01816620
#
# Stress axis : x y z
#
# Youngs Moduli (GPa) = 60.72026 81.92016 95.02207
#
# Poissons Ratio (x) = 0.08418 0.55929
# Poissons Ratio (y) = 0.06240 0.34239
# Poissons Ratio (z) = 0.35740 0.29518
#
# Static dielectric constant tensor:
#      x y z
#    x 1.726290 -0.009280 -0.007030 
#    y -0.009280 1.766880 -0.000040 
#    z -0.007030 -0.000040 1.746460 
# 
# From -- ./inp_files/263208.got.cif
#   From: 2010.05.17/outbox.cif.g08.bks.cpg/sg2_132_cif.got.tgz:263208.got - 2010.06.03 11:33:40.
