data_PCOD9005996
_publ_section_title
;
Structure prediction by ZEFSAII (Michael W. Deem and Ramdas Pophale) SiO2 
 PCOD9005996
Probable space group: P -1
;
_chemical_formula_sum "Si O2"
_cell_formula_units_Z 13
_cell_length_a 7.371070
_cell_length_b 9.426592
_cell_length_c 13.042049
_cell_angle_alpha 116.934807
_cell_angle_beta 142.278736
_cell_angle_gamma 68.965678
_cell_volume 494.296151
_symmetry_space_group_name_H-M "P -1"
_symmetry_group_IT_number 2
_symmetry_cell_setting 'triclinic'
loop_
_space_group_symop_operation_xyz
x,y,z
-x,-y,-z
loop_
_atom_site_type_symbol
_atom_site_label
_atom_site_fract_x
_atom_site_fract_y
_atom_site_fract_z
Si Si1 0.705033 0.491005 0.931166
Si Si2 0.661772 0.386532 0.374928
Si Si3 0.301058 0.963037 0.799736
Si Si4 0.358618 0.314822 0.422423
Si Si5 0.500000 0.000000 0.500000
Si Si6 0.980907 0.737884 0.271232
Si Si7 0.544127 0.827771 0.249170
O O1 0.450011 0.520411 0.745257
O O2 0.672845 0.319763 0.911407
O O3 0.736759 0.634073 0.072142
O O4 0.000000 0.500000 0.000000
O O5 0.758329 0.218901 0.311386
O O6 0.408057 0.329059 0.326300
O O7 0.810004 0.534036 0.554431
O O8 0.010046 0.082183 0.711623
O O9 0.473334 0.038800 0.803009
O O10 0.500000 0.000000 0.000000
O O11 0.309946 0.140063 0.386772
O O12 0.701804 0.335143 0.620246
O O13 0.480714 0.113832 0.629060
O O14 0.875516 0.762482 0.348017
#
# Coordination Sequence:
#
# PCOD9005996 Si02
#       7
#     2   2   2   2   1   2   2
#     4  12  21  41  67  94 127 171 210 257 323 383
#     4  11  21  38  64  90 127 161 210 261 311 368
#     4  10  21  38  64  91 128 162 206 266 315 362
#     4  11  23  40  66  90 125 171 210 261 313 378
#     4  12  20  40  62  92 128 166 210 254 318 384
#     4  10  22  40  67  89 126 167 213 252 322 376
#     4  10  23  38  65  94 128 168 211 261 318 382
#
# _framework density 26.300024000000001
#
# number of rings (size 3 to 8) (size 9 to 14) (size 15 to 20)
#    0.923    0.308    6.154    0.462    0.000    2.462 
#    0.000    3.077    6.769    0.000    0.000    0.000 
#    0.000    0.000    0.000    0.000    0.000    0.000 
#
# Total GULP energy -72370.010850 kJ/mol
# GULP energy per Si atom -5566.923912 kJ/mol
# Density = 2.624016 g / cm^3
# Si number density = 26.300024 Si / 1000 Ang^3
#
#
#
# Elastic Constant Matrix: (Units=GPa)
#
#
# Indices 1 2 3 4 5 6 
#
# 1 105.1450 42.2046 13.0560 6.2070 -29.2675 1.5037
# 2 42.2046 186.3104 1.8315 24.8037 -5.3649 -10.0554
# 3 13.0560 1.8315 71.9184 13.4969 -31.9800 -13.6174
# 4 6.2070 24.8037 13.4969 45.7674 -3.6792 -8.3314
# 5 -29.2675 -5.3649 -31.9800 -3.6792 36.4077 8.9814
# 6 1.5037 -10.0554 -13.6174 -8.3314 8.9814 59.9361
#
#
#
# Elastic Compliance Matrix: (Units=1/GPa)
#
#
# Indices 1 2 3 4 5 6 
#
# 1 0.014481 -0.002912 0.003855 -0.000735 0.015102 -0.002341
# 2 -0.002912 0.006457 0.000465 -0.003175 -0.001562 0.001055
# 3 0.003855 0.000465 0.025551 -0.006100 0.024689 0.001239
# 4 -0.000735 -0.003175 -0.006100 0.025535 -0.004406 0.002310
# 5 0.015102 -0.001562 0.024689 -0.004406 0.061829 -0.004909
# 6 -0.002341 0.001055 0.001239 0.002310 -0.004909 0.018258
#
#
# Mechanical properties :
#
#
# Convention : Reuss Voigt Hill
#
# Bulk Modulus (GPa) = 20.28138 53.06201 36.67169
# Shear Modulus (GPa) = 30.16958 48.84101 39.50530
#
# Velocity S-wave (km/s) = 3.39061 4.31405 3.87990
# Velocity P-wave (km/s) = 4.80173 6.71075 5.83484
#
# Compressibility (1/GPa) = 0.04930631
#
# Stress axis : x y z
#
# Youngs Moduli (GPa) = 69.05437 154.86709 39.13787
#
# Poissons Ratio (x) = 0.45097 -0.15088
# Poissons Ratio (y) = 0.20109 -0.01821
# Poissons Ratio (z) = -0.26622 -0.07207
#
# Static dielectric constant tensor:
#      x y z
#    x 2.102950 0.046020 0.010310 
#    y 0.046020 2.158550 -0.056530 
#    z 0.010310 -0.056530 2.039320 
# 
# From -- ./inp_files/376993.got.cif
#   From: 2010.05.17/outbox.cif.g08.bks.cpg/sg2_189_cif.got.tgz:376993.got - 2010.06.03 11:33:40.
