data_PCOD9005566
_publ_section_title
;
Structure prediction by ZEFSAII (Michael W. Deem and Ramdas Pophale) SiO2 
 PCOD9005566
Probable space group: P -1
;
_chemical_formula_sum "Si O2"
_cell_formula_units_Z 16
_cell_length_a 23.829538
_cell_length_b 6.164159
_cell_length_c 10.364116
_cell_angle_alpha 68.791166
_cell_angle_beta 34.983439
_cell_angle_gamma 59.383378
_cell_volume 746.391963
_symmetry_space_group_name_H-M "P -1"
_symmetry_group_IT_number 2
_symmetry_cell_setting 'triclinic'
loop_
_space_group_symop_operation_xyz
x,y,z
-x,-y,-z
loop_
_atom_site_type_symbol
_atom_site_label
_atom_site_fract_x
_atom_site_fract_y
_atom_site_fract_z
Si Si1 0.042954 0.251669 0.631514
Si Si2 0.086551 0.729541 0.344585
Si Si3 0.795524 0.288431 0.646227
Si Si4 0.515632 0.024054 0.263256
Si Si5 0.316062 0.919344 0.546970
Si Si6 0.107242 0.347600 0.755321
Si Si7 0.578320 0.581758 0.422260
Si Si8 0.609575 0.258694 0.845083
O O1 0.932083 0.268089 0.774045
O O2 0.054572 0.507786 0.509860
O O3 0.067765 0.217444 0.742472
O O4 0.134071 0.006555 0.450406
O O5 0.196685 0.681020 0.220773
O O6 0.000000 0.000000 0.500000
O O7 0.846170 0.462802 0.440259
O O8 0.684955 0.338794 0.777547
O O9 0.476683 0.274856 0.372785
O O10 0.409650 0.993925 0.415416
O O11 0.589001 0.798862 0.267439
O O12 0.585309 0.039605 0.008605
O O13 0.323998 0.672977 0.665825
O O14 0.344680 0.831328 0.363333
O O15 0.201224 0.149549 0.707260
O O16 0.000000 0.500000 0.000000
O O17 0.500000 0.500000 0.500000
O O18 0.500000 0.500000 0.000000
#
# Coordination Sequence:
#
# PCOD9005566 Si02
#       8
#     2   2   2   2   2   2   2   2
#     4   9  17  37  62  86 118 163 206 269 325 370
#     4   8  16  33  65  82 118 165 201 260 330 374
#     4  10  21  38  62  93 129 162 211 276 324 387
#     4  10  21  39  69  95 137 172 216 267 329 399
#     4  11  22  41  67  94 132 173 220 276 328 389
#     4  11  24  40  65  89 127 173 224 272 330 392
#     4   9  20  41  67  89 132 178 217 265 319 392
#     4  12  22  38  67 104 133 169 214 268 339 398
#
# _framework density 21.436457000000001
#
# number of rings (size 3 to 8) (size 9 to 14) (size 15 to 20)
#    0.000    2.000    2.500    1.125    0.000    0.500 
#    0.000    0.000   66.000    0.000    0.000    0.000 
#    0.000    0.000    0.000    0.000    0.000    0.000 
#
# Total GULP energy -89223.747781 kJ/mol
# GULP energy per Si atom -5576.484236 kJ/mol
# Density = 2.138767 g / cm^3
# Si number density = 21.436457 Si / 1000 Ang^3
#
#
#
# Elastic Constant Matrix: (Units=GPa)
#
#
# Indices 1 2 3 4 5 6 
#
# 1 169.7500 30.1415 45.6864 7.6099 -38.5919 -1.3119
# 2 30.1415 113.5152 24.4678 10.0640 -10.3746 -26.1812
# 3 45.6864 24.4678 62.1162 10.2879 -23.8180 -16.4531
# 4 7.6099 10.0640 10.2879 14.5251 -5.8672 -0.1149
# 5 -38.5919 -10.3746 -23.8180 -5.8672 24.2814 -1.8468
# 6 -1.3119 -26.1812 -16.4531 -0.1149 -1.8468 43.2953
#
#
#
# Elastic Compliance Matrix: (Units=1/GPa)
#
#
# Indices 1 2 3 4 5 6 
#
# 1 0.009552 -0.001283 -0.002111 0.002689 0.013158 -0.000721
# 2 -0.001283 0.011503 0.000087 -0.006530 0.001916 0.007015
# 3 -0.002111 0.000087 0.034238 -0.011559 0.028552 0.014187
# 4 0.002689 -0.006530 -0.011559 0.084080 0.009883 -0.007615
# 5 0.013158 0.001916 0.028552 0.009883 0.094563 0.016468
# 6 -0.000721 0.007015 0.014187 -0.007615 0.016468 0.033391
#
#
# Mechanical properties :
#
#
# Convention : Reuss Voigt Hill
#
# Bulk Modulus (GPa) = 20.54295 60.66363 40.60329
# Shear Modulus (GPa) = 17.23134 32.75940 24.99537
#
# Velocity S-wave (km/s) = 2.83827 3.91347 3.41841
# Velocity P-wave (km/s) = 4.51055 6.98435 5.87904
#
# Compressibility (1/GPa) = 0.04867849
#
# Stress axis : x y z
#
# Youngs Moduli (GPa) = 104.68596 86.93084 29.20773
#
# Poissons Ratio (x) = 0.11157 0.06166
# Poissons Ratio (y) = 0.13436 -0.00255
# Poissons Ratio (z) = 0.22101 -0.00758
#
# Static dielectric constant tensor:
#      x y z
#    x 1.848730 -0.007270 -0.007730 
#    y -0.007270 1.820990 -0.016950 
#    z -0.007730 -0.016950 1.763730 
# 
# From -- ./inp_files/473388.got.cif
#   From: 2010.05.17/outbox.cif.g08.bks.cpg/sg2_237_cif.got.tgz:473388.got - 2010.06.03 11:33:40.
