data_PCOD9005392
_publ_section_title
;
Structure prediction by ZEFSAII (Michael W. Deem and Ramdas Pophale) SiO2 
 PCOD9005392
Probable space group: P -1
;
_chemical_formula_sum "Si O2"
_cell_formula_units_Z 16
_cell_length_a 16.204760
_cell_length_b 8.623402
_cell_length_c 22.884176
_cell_angle_alpha 30.854077
_cell_angle_beta 157.559883
_cell_angle_gamma 145.294334
_cell_volume 619.300949
_symmetry_space_group_name_H-M "P -1"
_symmetry_group_IT_number 2
_symmetry_cell_setting 'triclinic'
loop_
_space_group_symop_operation_xyz
x,y,z
-x,-y,-z
loop_
_atom_site_type_symbol
_atom_site_label
_atom_site_fract_x
_atom_site_fract_y
_atom_site_fract_z
Si Si1 0.635271 0.269297 0.428567
Si Si2 0.014413 0.155676 0.239900
Si Si3 0.184496 0.777983 0.194175
Si Si4 0.541579 0.309484 0.228409
Si Si5 0.407970 0.814513 0.821178
Si Si6 0.850037 0.170680 0.009778
Si Si7 0.213318 0.786094 0.336141
Si Si8 0.312894 0.862161 0.875010
O O1 0.629341 0.438324 0.307916
O O2 0.726303 0.402164 0.507440
O O3 0.798658 0.029270 0.598266
O O4 0.398059 0.084930 0.349914
O O5 0.114894 0.509427 0.191009
O O6 0.824730 0.104133 0.084084
O O7 0.907899 0.075961 0.258152
O O8 0.416559 0.976407 0.270485
O O9 0.992344 0.923825 0.158297
O O10 0.196535 0.627285 0.314443
O O11 0.000000 0.000000 0.000000
O O12 0.689501 0.273863 0.279301
O O13 0.354288 0.508180 0.022795
O O14 0.305576 0.910254 0.784530
O O15 0.500000 0.500000 0.000000
O O16 0.609642 0.087712 0.854010
O O17 0.000000 0.500000 0.000000
O O18 0.500000 0.000000 0.000000
#
# Coordination Sequence:
#
# PCOD9005392 Si02
#       8
#     2   2   2   2   2   2   2   2
#     4   9  21  40  56  87 128 162 198 236 318 372
#     4  11  22  37  60  90 125 156 194 255 304 364
#     4  11  19  34  62  96 120 148 203 253 308 349
#     4  10  21  38  62  84 119 158 202 249 298 373
#     4  10  22  38  60  89 120 160 205 253 306 356
#     4  11  21  35  62  96 120 150 207 259 307 353
#     4   9  20  35  58  86 129 162 188 246 313 372
#     4  11  22  40  61  86 117 158 207 253 300 349
#
# _framework density 25.835581999999999
#
# number of rings (size 3 to 8) (size 9 to 14) (size 15 to 20)
#    0.000    1.750    2.500    2.250    3.500    2.000 
#    0.000    3.750    0.000    0.000    0.000    0.000 
#    0.000    0.000    0.000    0.000    0.000    0.000 
#
# Total GULP energy -89287.142579 kJ/mol
# GULP energy per Si atom -5580.446411 kJ/mol
# Density = 2.577678 g / cm^3
# Si number density = 25.835582 Si / 1000 Ang^3
#
#
#
# Elastic Constant Matrix: (Units=GPa)
#
#
# Indices 1 2 3 4 5 6 
#
# 1 205.4846 11.0078 30.2041 5.0139 -45.3423 -6.5847
# 2 11.0078 65.2208 -1.4842 -0.8983 -6.3695 2.0934
# 3 30.2041 -1.4842 55.8580 -5.7669 -27.6434 -11.1333
# 4 5.0139 -0.8983 -5.7669 19.3459 -4.3954 -7.0821
# 5 -45.3423 -6.3695 -27.6434 -4.3954 56.4793 11.4430
# 6 -6.5847 2.0934 -11.1333 -7.0821 11.4430 27.0700
#
#
#
# Elastic Compliance Matrix: (Units=1/GPa)
#
#
# Indices 1 2 3 4 5 6 
#
# 1 0.006053 -0.000640 -0.001703 -0.001669 0.004096 -0.001347
# 2 -0.000640 0.015804 0.001982 0.001630 0.002617 -0.001243
# 3 -0.001703 0.001982 0.028360 0.015384 0.011889 0.010096
# 4 -0.001669 0.001630 0.015384 0.065744 0.007471 0.019837
# 5 0.004096 0.002617 0.011889 0.007471 0.028591 -0.004448
# 6 -0.001347 -0.001243 0.010096 0.019837 -0.004448 0.047932
#
#
# Mechanical properties :
#
#
# Convention : Reuss Voigt Hill
#
# Bulk Modulus (GPa) = 20.20475 45.11319 32.65897
# Shear Modulus (GPa) = 23.84317 39.70144 31.77230
#
# Velocity S-wave (km/s) = 3.04119 3.92432 3.51064
# Velocity P-wave (km/s) = 4.49102 6.16712 5.39456
#
# Compressibility (1/GPa) = 0.04949332
#
# Stress axis : x y z
#
# Youngs Moduli (GPa) = 165.21688 63.27688 35.26055
#
# Poissons Ratio (x) = 0.04050 0.06006
# Poissons Ratio (y) = 0.10574 -0.06988
# Poissons Ratio (z) = 0.28142 -0.12540
#
# Static dielectric constant tensor:
#      x y z
#    x 2.074940 0.006900 -0.096920 
#    y 0.006900 2.050460 0.010890 
#    z -0.096920 0.010890 2.047700 
# 
# From -- ./inp_files/507977.got.cif
#   From: 2010.05.17/outbox.cif.g08.bks.cpg/sg2_254_cif.got.tgz:507977.got - 2010.06.03 11:33:40.
