data_PCOD9005874
_publ_section_title
;
Structure prediction by ZEFSAII (Michael W. Deem and Ramdas Pophale) SiO2 
 PCOD9005874
Probable space group: P -1
;
_chemical_formula_sum "Si O2"
_cell_formula_units_Z 14
_cell_length_a 14.669501
_cell_length_b 6.941744
_cell_length_c 7.519095
_cell_angle_alpha 57.387953
_cell_angle_beta 116.557023
_cell_angle_gamma 114.023756
_cell_volume 562.712092
_symmetry_space_group_name_H-M "P -1"
_symmetry_group_IT_number 2
_symmetry_cell_setting 'triclinic'
loop_
_space_group_symop_operation_xyz
x,y,z
-x,-y,-z
loop_
_atom_site_type_symbol
_atom_site_label
_atom_site_fract_x
_atom_site_fract_y
_atom_site_fract_z
Si Si1 0.371989 0.567756 0.341381
Si Si2 0.254176 0.904209 0.232165
Si Si3 0.010012 0.360598 0.322816
Si Si4 0.825734 0.431660 0.360421
Si Si5 0.583774 0.872652 0.481884
Si Si6 0.406866 0.620184 0.925846
Si Si7 0.050259 0.881705 0.944853
O O1 0.280025 0.685991 0.258827
O O2 0.470015 0.701877 0.476104
O O3 0.352518 0.289892 0.489585
O O4 0.400837 0.618747 0.135269
O O5 0.203672 0.800856 0.426257
O O6 0.172401 0.003024 0.997012
O O7 0.359462 0.077251 0.303728
O O8 0.893916 0.365650 0.290341
O O9 0.090821 0.376764 0.549012
O O10 0.046769 0.614410 0.135833
O O11 0.005785 0.158866 0.273266
O O12 0.713020 0.484934 0.191272
O O13 0.574502 0.111063 0.260781
O O14 0.500000 0.500000 0.000000
O O15 0.000000 0.000000 0.000000
#
# Coordination Sequence:
#
# PCOD9005874 Si02
#       7
#     2   2   2   2   2   2   2
#     4  11  24  43  70  92 135 187 223 281 334 393
#     4  10  22  40  64  95 134 170 228 277 339 403
#     4   9  19  41  65  86 132 170 221 277 331 401
#     4   9  20  40  64  91 128 180 218 276 339 393
#     4  10  25  43  65  96 133 179 229 274 336 400
#     4  11  25  42  66 102 141 175 230 278 341 410
#     4  10  21  38  63  98 125 168 223 277 342 407
#
# _framework density 24.879508999999999
#
# number of rings (size 3 to 8) (size 9 to 14) (size 15 to 20)
#    0.000    2.000    0.000    1.714   10.000    4.571 
#    0.000    9.286    0.000    0.000    0.000    0.000 
#    0.000    0.000    0.000    0.000    0.000    0.000 
#
# Total GULP energy -78267.866339 kJ/mol
# GULP energy per Si atom -5590.561881 kJ/mol
# Density = 2.482288 g / cm^3
# Si number density = 24.879509 Si / 1000 Ang^3
#
#
#
# Elastic Constant Matrix: (Units=GPa)
#
#
# Indices 1 2 3 4 5 6 
#
# 1 124.4687 61.7235 39.4114 11.9023 26.9125 -12.2308
# 2 61.7235 165.1305 55.0146 10.5376 17.7169 -19.5641
# 3 39.4114 55.0146 121.3707 10.4976 25.4323 -2.8823
# 4 11.9023 10.5376 10.4976 45.8317 2.1762 -5.6891
# 5 26.9125 17.7169 25.4323 2.1762 45.6463 -6.7306
# 6 -12.2308 -19.5641 -2.8823 -5.6891 -6.7306 32.2800
#
#
#
# Elastic Compliance Matrix: (Units=1/GPa)
#
#
# Indices 1 2 3 4 5 6 
#
# 1 0.011149 -0.003089 -0.001110 -0.001588 -0.004529 0.001029
# 2 -0.003089 0.008579 -0.002937 -0.000046 0.000706 0.003906
# 3 -0.001110 -0.002937 0.010980 -0.001639 -0.004609 -0.002470
# 4 -0.001588 -0.000046 -0.001639 0.022996 0.001294 0.003547
# 5 -0.004529 0.000706 -0.004609 0.001294 0.027437 0.004249
# 6 0.001029 0.003906 -0.002470 0.003547 0.004249 0.035027
#
#
# Mechanical properties :
#
#
# Convention : Reuss Voigt Hill
#
# Bulk Modulus (GPa) = 60.83477 80.36322 70.59900
# Shear Modulus (GPa) = 36.78727 41.73964 39.26345
#
# Velocity S-wave (km/s) = 3.84945 4.10038 3.97690
# Velocity P-wave (km/s) = 6.65301 7.40193 7.03744
#
# Compressibility (1/GPa) = 0.01643797
#
# Stress axis : x y z
#
# Youngs Moduli (GPa) = 89.69091 116.56816 91.07756
#
# Poissons Ratio (x) = 0.36003 0.10106
# Poissons Ratio (y) = 0.27702 0.26747
# Poissons Ratio (z) = 0.09952 0.34232
#
# Static dielectric constant tensor:
#      x y z
#    x 2.046660 0.020060 0.102040 
#    y 0.020060 2.040930 -0.019990 
#    z 0.102040 -0.019990 2.098430 
# 
# From -- ./inp_files/288562.got.cif
#   From: 2010.05.17/outbox.cif.g08.bks.cpg/sg2_145_cif.got.tgz:288562.got - 2010.06.03 11:33:40.
