data_PCOD9005531
_publ_section_title
;
Structure prediction by ZEFSAII (Michael W. Deem and Ramdas Pophale) SiO2 
 PCOD9005531
Probable space group: P -1
;
_chemical_formula_sum "Si O2"
_cell_formula_units_Z 16
_cell_length_a 14.195133
_cell_length_b 8.215966
_cell_length_c 9.703192
_cell_angle_alpha 54.453475
_cell_angle_beta 58.782823
_cell_angle_gamma 47.973490
_cell_volume 668.194725
_symmetry_space_group_name_H-M "P -1"
_symmetry_group_IT_number 2
_symmetry_cell_setting 'triclinic'
loop_
_space_group_symop_operation_xyz
x,y,z
-x,-y,-z
loop_
_atom_site_type_symbol
_atom_site_label
_atom_site_fract_x
_atom_site_fract_y
_atom_site_fract_z
Si Si1 0.297341 0.348308 0.961097
Si Si2 0.660436 0.080091 0.264066
Si Si3 0.094236 0.472600 0.291234
Si Si4 0.920195 0.009122 0.187153
Si Si5 0.532408 0.102491 0.083028
Si Si6 0.796265 0.271895 0.394610
Si Si7 0.570292 0.218608 0.557668
Si Si8 0.164262 0.464170 0.542076
O O1 0.343269 0.083639 0.008815
O O2 0.271544 0.500403 0.768591
O O3 0.175437 0.451454 0.105399
O O4 0.421000 0.307827 0.974361
O O5 0.771997 0.134493 0.186360
O O6 0.579958 0.181389 0.137288
O O7 0.743763 0.793861 0.331712
O O8 0.567252 0.172176 0.420915
O O9 0.184101 0.404231 0.392763
O O10 0.982088 0.734753 0.295074
O O11 0.990937 0.397991 0.373102
O O12 0.923435 0.113533 0.280854
O O13 0.000000 0.000000 0.000000
O O14 0.475777 0.939945 0.256303
O O15 0.719058 0.136014 0.521306
O O16 0.797830 0.364841 0.498210
O O17 0.500000 0.500000 0.500000
#
# Coordination Sequence:
#
# PCOD9005531 Si02
#       8
#     2   2   2   2   2   2   2   2
#     4  11  22  39  64  92 124 160 208 260 302 364
#     4  10  21  38  63  89 117 168 210 242 306 375
#     4  10  22  39  65  90 126 159 206 255 310 371
#     4  10  21  38  62  92 128 157 195 262 319 362
#     4  11  23  40  63  88 127 165 214 250 302 371
#     4  11  22  40  66  91 125 162 209 254 319 361
#     4  11  21  37  60  87 123 164 204 255 303 362
#     4  10  21  41  64  93 120 162 208 253 307 380
#
# _framework density 23.945115000000001
#
# number of rings (size 3 to 8) (size 9 to 14) (size 15 to 20)
#    0.000    1.500    3.750    1.125    0.000    4.000 
#    0.000    5.000    0.000    0.000    0.000    0.000 
#    0.000    0.000    0.000    0.000    0.000    0.000 
#
# Total GULP energy -89230.372521 kJ/mol
# GULP energy per Si atom -5576.898283 kJ/mol
# Density = 2.389061 g / cm^3
# Si number density = 23.945115 Si / 1000 Ang^3
#
#
#
# Elastic Constant Matrix: (Units=GPa)
#
#
# Indices 1 2 3 4 5 6 
#
# 1 62.8271 15.9497 15.7951 5.9785 19.8202 13.2928
# 2 15.9497 74.4452 8.5054 22.0106 6.0490 -0.5443
# 3 15.7951 8.5054 70.2323 18.9520 1.4031 -2.4207
# 4 5.9785 22.0106 18.9520 37.3005 -3.3753 8.9134
# 5 19.8202 6.0490 1.4031 -3.3753 37.1394 4.8204
# 6 13.2928 -0.5443 -2.4207 8.9134 4.8204 32.7062
#
#
#
# Elastic Compliance Matrix: (Units=1/GPa)
#
#
# Indices 1 2 3 4 5 6 
#
# 1 0.023329 -0.004539 -0.005671 0.003154 -0.009994 -0.009363
# 2 -0.004539 0.018247 0.002622 -0.013121 -0.002660 0.006310
# 3 -0.005671 0.002622 0.018610 -0.011760 -0.000073 0.006942
# 4 0.003154 -0.013121 -0.011760 0.044348 0.006938 -0.015479
# 5 -0.009994 -0.002660 -0.000073 0.006938 0.033695 -0.002845
# 6 -0.009363 0.006310 0.006942 -0.015479 -0.002845 0.039637
#
#
# Mechanical properties :
#
#
# Convention : Reuss Voigt Hill
#
# Bulk Modulus (GPa) = 22.21683 32.00053 27.10868
# Shear Modulus (GPa) = 24.03323 32.57953 28.30638
#
# Velocity S-wave (km/s) = 3.17153 3.69262 3.44195
# Velocity P-wave (km/s) = 4.76548 5.61905 5.20978
#
# Compressibility (1/GPa) = 0.04501093
#
# Stress axis : x y z
#
# Youngs Moduli (GPa) = 42.86588 54.80275 53.73371
#
# Poissons Ratio (x) = 0.24875 0.30472
# Poissons Ratio (y) = 0.19457 -0.14091
# Poissons Ratio (z) = 0.24309 -0.14371
#
# Static dielectric constant tensor:
#      x y z
#    x 2.022170 -0.006360 -0.017880 
#    y -0.006360 2.046260 -0.047970 
#    z -0.017880 -0.047970 1.971200 
# 
# From -- ./inp_files/294811.got.cif
#   From: 2010.05.17/outbox.cif.g08.bks.cpg/sg2_148_cif.got.tgz:294811.got - 2010.06.03 11:33:40.
