data_PCOD9005236
_publ_section_title
;
Structure prediction by ZEFSAII (Michael W. Deem and Ramdas Pophale) SiO2 
 PCOD9005236
Probable space group: P -1
;
_chemical_formula_sum "Si O2"
_cell_formula_units_Z 16
_cell_length_a 11.892214
_cell_length_b 11.948012
_cell_length_c 10.227660
_cell_angle_alpha 143.098518
_cell_angle_beta 120.749919
_cell_angle_gamma 48.573210
_cell_volume 653.748866
_symmetry_space_group_name_H-M "P -1"
_symmetry_group_IT_number 2
_symmetry_cell_setting 'triclinic'
loop_
_space_group_symop_operation_xyz
x,y,z
-x,-y,-z
loop_
_atom_site_type_symbol
_atom_site_label
_atom_site_fract_x
_atom_site_fract_y
_atom_site_fract_z
Si Si1 0.833024 0.638420 0.392233
Si Si2 0.798070 0.073072 0.682954
Si Si3 0.186927 0.780327 0.440390
Si Si4 0.972053 0.201501 0.090641
Si Si5 0.733462 0.965668 0.061978
Si Si6 0.927618 0.513525 0.829395
Si Si7 0.499757 0.589328 0.729218
Si Si8 0.461779 0.375956 0.749210
O O1 0.661514 0.688367 0.340684
O O2 0.941155 0.516805 0.219593
O O3 0.835131 0.860767 0.590080
O O4 0.908504 0.429194 0.337750
O O5 0.874900 0.080570 0.597527
O O6 0.839808 0.221014 0.934131
O O7 0.623964 0.167911 0.629285
O O8 0.103321 0.682576 0.383459
O O9 0.327676 0.555808 0.262803
O O10 0.232976 0.915568 0.689103
O O11 0.134461 0.112343 0.037924
O O12 0.000000 0.000000 0.000000
O O13 0.578661 0.153304 0.085793
O O14 0.771348 0.733402 0.920185
O O15 0.000000 0.500000 0.000000
O O16 0.500000 0.500000 0.500000
O O17 0.417060 0.518260 0.722257
O O18 0.500000 0.500000 0.000000
#
# Coordination Sequence:
#
# PCOD9005236 Si02
#       8
#     2   2   2   2   2   2   2   2
#     4  11  23  40  62  96 126 162 222 263 322 388
#     4  11  23  40  66  92 123 170 213 268 321 382
#     4  10  21  41  64  90 124 163 213 261 318 376
#     4  11  23  39  59  87 128 168 207 262 321 378
#     4  10  21  38  61  88 124 164 206 261 316 375
#     4  11  23  36  61  94 128 167 216 263 314 383
#     4   9  21  41  67  93 127 170 214 264 330 386
#     4  11  22  41  70  95 128 171 216 272 328 390
#
# _framework density 24.474232000000001
#
# number of rings (size 3 to 8) (size 9 to 14) (size 15 to 20)
#    0.000    1.500    1.250    4.125    1.750    2.500 
#    0.000    5.000    5.500    0.000    0.000    0.000 
#    0.000    0.000    0.000    0.000    0.000    0.000 
#
# Total GULP energy -89162.412294 kJ/mol
# GULP energy per Si atom -5572.650768 kJ/mol
# Density = 2.441853 g / cm^3
# Si number density = 24.474232 Si / 1000 Ang^3
#
#
#
# Elastic Constant Matrix: (Units=GPa)
#
#
# Indices 1 2 3 4 5 6 
#
# 1 113.7451 25.3104 17.4680 18.9552 18.6518 12.0641
# 2 25.3104 142.4862 39.4540 55.2574 8.8594 2.5592
# 3 17.4680 39.4540 79.0393 32.5362 27.6298 7.6904
# 4 18.9552 55.2574 32.5362 51.0770 9.0407 -7.1132
# 5 18.6518 8.8594 27.6298 9.0407 30.9892 8.7703
# 6 12.0641 2.5592 7.6904 -7.1132 8.7703 39.9901
#
#
#
# Elastic Compliance Matrix: (Units=1/GPa)
#
#
# Indices 1 2 3 4 5 6 
#
# 1 0.010545 -0.000410 0.001884 -0.004035 -0.005900 -0.002941
# 2 -0.000410 0.012636 -0.001148 -0.013743 0.002656 -0.003491
# 3 0.001884 -0.001148 0.024582 -0.012386 -0.018133 -0.003448
# 4 -0.004035 -0.013743 -0.012386 0.045454 0.000623 0.012427
# 5 -0.005900 0.002656 -0.018133 0.000623 0.052853 -0.006383
# 6 -0.002941 -0.003491 -0.003448 0.012427 -0.006383 0.030390
#
#
# Mechanical properties :
#
#
# Convention : Reuss Voigt Hill
#
# Bulk Modulus (GPa) = 20.65551 55.52617 38.09084
# Shear Modulus (GPa) = 26.04861 41.28046 33.66453
#
# Velocity S-wave (km/s) = 3.26594 4.11139 3.71281
# Velocity P-wave (km/s) = 4.76234 6.72866 5.82901
#
# Compressibility (1/GPa) = 0.04841324
#
# Stress axis : x y z
#
# Youngs Moduli (GPa) = 94.82818 79.13698 40.68036
#
# Poissons Ratio (x) = 0.03248 -0.07663
# Poissons Ratio (y) = 0.03892 0.04672
# Poissons Ratio (z) = -0.17863 0.09089
#
# Static dielectric constant tensor:
#      x y z
#    x 2.045190 0.023150 0.029970 
#    y 0.023150 2.125890 0.062020 
#    z 0.029970 0.062020 1.981560 
# 
# From -- ./inp_files/427007.got.cif
#   From: 2010.05.17/outbox.cif.g08.bks.cpg/sg2_214_cif.got.tgz:427007.got - 2010.06.03 11:33:40.
