data_PCOD9005536
_publ_section_title
;
Structure prediction by ZEFSAII (Michael W. Deem and Ramdas Pophale) SiO2 
 PCOD9005536
Probable space group: P -1
;
_chemical_formula_sum "Si O2"
_cell_formula_units_Z 16
_cell_length_a 9.335281
_cell_length_b 9.086344
_cell_length_c 14.134137
_cell_angle_alpha 35.234672
_cell_angle_beta 91.928626
_cell_angle_gamma 98.630229
_cell_volume 675.491299
_symmetry_space_group_name_H-M "P -1"
_symmetry_group_IT_number 2
_symmetry_cell_setting 'triclinic'
loop_
_space_group_symop_operation_xyz
x,y,z
-x,-y,-z
loop_
_atom_site_type_symbol
_atom_site_label
_atom_site_fract_x
_atom_site_fract_y
_atom_site_fract_z
Si Si1 0.934072 0.026718 0.881071
Si Si2 0.460905 0.755124 0.411260
Si Si3 0.921664 0.568715 0.661103
Si Si4 0.317260 0.456263 0.840134
Si Si5 0.913474 0.370537 0.975683
Si Si6 0.617323 0.689876 0.642637
Si Si7 0.221441 0.812023 0.497342
Si Si8 0.386418 0.688390 0.911210
O O1 0.047238 0.915493 0.876406
O O2 0.925583 0.325234 0.720616
O O3 0.776700 0.823710 0.983366
O O4 0.000000 0.000000 0.000000
O O5 0.500000 0.500000 0.500000
O O6 0.533557 0.781825 0.503503
O O7 0.292005 0.762780 0.424761
O O8 0.531983 0.018146 0.220858
O O9 0.756165 0.601914 0.647154
O O10 0.048869 0.804831 0.503089
O O11 0.957990 0.503861 0.805308
O O12 0.487352 0.481464 0.800757
O O13 0.243612 0.568388 0.690497
O O14 0.313090 0.652813 0.823877
O O15 0.745263 0.382885 0.981023
O O16 0.000000 0.500000 0.000000
O O17 0.685153 0.923295 0.593470
O O18 0.500000 0.500000 0.000000
#
# Coordination Sequence:
#
# PCOD9005536 Si02
#       8
#     2   2   2   2   2   2   2   2
#     4  10  21  38  62  92 130 167 212 262 326 384
#     4  11  26  43  66  97 130 175 214 272 346 375
#     4  11  24  40  65 104 126 168 223 266 330 380
#     4  11  19  41  66  91 123 174 221 257 322 389
#     4  11  22  39  65  91 133 172 209 263 326 391
#     4  11  23  42  68  93 126 175 223 270 311 397
#     4  11  20  43  70  87 130 171 220 261 313 411
#     4  12  24  41  65  98 133 166 222 273 319 393
#
# _framework density 23.686461999999999
#
# number of rings (size 3 to 8) (size 9 to 14) (size 15 to 20)
#    0.000    1.000    6.250    1.875    1.750    2.500 
#    0.000    0.625    0.000    0.000    0.000    0.000 
#    0.000    0.000    0.000    0.000    0.000    0.000 
#
# Total GULP energy -89418.279255 kJ/mol
# GULP energy per Si atom -5588.642453 kJ/mol
# Density = 2.363255 g / cm^3
# Si number density = 23.686462 Si / 1000 Ang^3
#
#
#
# Elastic Constant Matrix: (Units=GPa)
#
#
# Indices 1 2 3 4 5 6 
#
# 1 160.6179 33.6260 30.1679 -7.6168 -33.3480 -31.0872
# 2 33.6260 109.0361 20.7900 -23.6789 -8.7628 -26.5276
# 3 30.1679 20.7900 51.4559 -12.8597 -21.8286 2.6027
# 4 -7.6168 -23.6789 -12.8597 35.2777 -1.4554 4.1130
# 5 -33.3480 -8.7628 -21.8286 -1.4554 40.6373 2.3629
# 6 -31.0872 -26.5276 2.6027 4.1130 2.3629 41.0372
#
#
#
# Elastic Compliance Matrix: (Units=1/GPa)
#
#
# Indices 1 2 3 4 5 6 
#
# 1 0.009369 -0.000074 -0.003499 0.000110 0.005392 0.006950
# 2 -0.000074 0.013406 -0.003928 0.006618 0.000482 0.008168
# 3 -0.003499 -0.003928 0.032148 0.009979 0.014434 -0.009060
# 4 0.000110 0.006618 0.009979 0.036840 0.008222 -0.000437
# 5 0.005392 0.000482 0.014434 0.008222 0.037155 0.000518
# 6 0.006950 0.008168 -0.009060 -0.000437 0.000518 0.035501
#
#
# Mechanical properties :
#
#
# Convention : Reuss Voigt Hill
#
# Bulk Modulus (GPa) = 25.04965 54.47530 39.76247
# Shear Modulus (GPa) = 25.94326 39.15885 32.55105
#
# Velocity S-wave (km/s) = 3.31309 4.07039 3.71111
# Velocity P-wave (km/s) = 5.02333 6.71857 5.93182
#
# Compressibility (1/GPa) = 0.03992072
#
# Stress axis : x y z
#
# Youngs Moduli (GPa) = 106.74001 74.59196 31.10612
#
# Poissons Ratio (x) = 0.00552 0.10885
# Poissons Ratio (y) = 0.00790 0.12217
# Poissons Ratio (z) = 0.37352 0.29297
#
# Static dielectric constant tensor:
#      x y z
#    x 2.127990 -0.091250 0.120930 
#    y -0.091250 1.983790 -0.037810 
#    z 0.120930 -0.037810 2.014200 
# 
# From -- ./inp_files/263153.got.cif
#   From: 2010.05.17/outbox.cif.g08.bks.cpg/sg2_132_cif.got.tgz:263153.got - 2010.06.03 11:33:40.
