data_PCOD9005864
_publ_section_title
;
Structure prediction by ZEFSAII (Michael W. Deem and Ramdas Pophale) SiO2 
 PCOD9005864
Probable space group: P -1
;
_chemical_formula_sum "Si O2"
_cell_formula_units_Z 16
_cell_length_a 13.166725
_cell_length_b 13.386559
_cell_length_c 8.969988
_cell_angle_alpha 45.104463
_cell_angle_beta 133.402817
_cell_angle_gamma 134.618114
_cell_volume 737.565322
_symmetry_space_group_name_H-M "P -1"
_symmetry_group_IT_number 2
_symmetry_cell_setting 'triclinic'
loop_
_space_group_symop_operation_xyz
x,y,z
-x,-y,-z
loop_
_atom_site_type_symbol
_atom_site_label
_atom_site_fract_x
_atom_site_fract_y
_atom_site_fract_z
Si Si1 0.862946 0.609651 0.104497
Si Si2 0.169879 0.560421 0.478342
Si Si3 0.628638 0.606078 0.637064
Si Si4 0.409408 0.751888 0.295411
Si Si5 0.642173 0.084749 0.189939
Si Si6 0.081311 0.954942 0.994866
Si Si7 0.328360 0.869954 0.493636
Si Si8 0.174482 0.077747 0.644213
O O1 0.827977 0.584412 0.274504
O O2 0.995728 0.544886 0.296040
O O3 0.719084 0.548008 0.909611
O O4 0.953400 0.793117 0.971088
O O5 0.253036 0.624559 0.338477
O O6 0.280368 0.700706 0.551655
O O7 0.500000 0.500000 0.500000
O O8 0.535989 0.692113 0.535417
O O9 0.751500 0.744256 0.518256
O O10 0.481594 0.933831 0.222953
O O11 0.386975 0.781538 0.067635
O O12 0.712288 0.144404 0.357717
O O13 0.737970 0.015711 0.253992
O O14 0.164157 0.065899 0.824252
O O15 0.214000 0.923467 0.238331
O O16 0.000000 0.000000 0.000000
O O17 0.500000 0.000000 0.500000
O O18 0.000000 0.000000 0.500000
#
# Coordination Sequence:
#
# PCOD9005864 Si02
#       8
#     2   2   2   2   2   2   2   2
#     4  10  23  43  65  89 136 168 219 275 325 395
#     4  10  22  42  66  92 128 178 209 272 336 383
#     4  11  26  42  65  98 132 174 218 269 334 395
#     4  10  22  39  63  91 129 170 213 268 334 380
#     4  10  21  38  63  97 130 164 220 270 322 388
#     4  11  24  41  65  96 125 169 221 266 325 392
#     4  11  22  35  64  97 124 163 218 266 317 393
#     4  11  22  42  70  92 132 175 212 277 328 384
#
# _framework density 21.692993999999999
#
# number of rings (size 3 to 8) (size 9 to 14) (size 15 to 20)
#    0.000    1.500    2.500    2.250    7.000    1.500 
#    0.000    1.875    0.000    0.000    0.000    0.000 
#    0.000    0.000    0.000    0.000    0.000    0.000 
#
# Total GULP energy -89114.001403 kJ/mol
# GULP energy per Si atom -5569.625088 kJ/mol
# Density = 2.164362 g / cm^3
# Si number density = 21.692994 Si / 1000 Ang^3
#
#
#
# Elastic Constant Matrix: (Units=GPa)
#
#
# Indices 1 2 3 4 5 6 
#
# 1 60.5047 7.9456 25.0654 -1.9088 -12.2129 11.7743
# 2 7.9456 69.3591 30.8721 16.5597 6.1593 18.8452
# 3 25.0654 30.8721 137.8143 11.2477 -22.4598 5.4591
# 4 -1.9088 16.5597 11.2477 35.6421 4.7197 -7.0780
# 5 -12.2129 6.1593 -22.4598 4.7197 32.9273 2.7085
# 6 11.7743 18.8452 5.4591 -7.0780 2.7085 30.3533
#
#
#
# Elastic Compliance Matrix: (Units=1/GPa)
#
#
# Indices 1 2 3 4 5 6 
#
# 1 0.020447 0.000808 -0.002354 -0.001194 0.006730 -0.008889
# 2 0.000808 0.024481 -0.004580 -0.012771 -0.004150 -0.017297
# 3 -0.002354 -0.004580 0.009966 -0.001888 0.006978 0.000901
# 4 -0.001194 -0.012771 -0.001888 0.039032 -0.006451 0.018409
# 5 0.006730 -0.004150 0.006978 -0.006451 0.039849 -0.006349
# 6 -0.008889 -0.017297 0.000901 0.018409 -0.006349 0.051829
#
#
# Mechanical properties :
#
#
# Convention : Reuss Voigt Hill
#
# Bulk Modulus (GPa) = 23.45087 43.93827 33.69457
# Shear Modulus (GPa) = 23.57714 33.37086 28.47400
#
# Velocity S-wave (km/s) = 3.30033 3.92640 3.62690
# Velocity P-wave (km/s) = 5.03554 6.39172 5.75373
#
# Compressibility (1/GPa) = 0.04264235
#
# Stress axis : x y z
#
# Youngs Moduli (GPa) = 48.90679 40.84812 100.34354
#
# Poissons Ratio (x) = -0.03299 0.23616
# Poissons Ratio (y) = -0.03950 0.45956
# Poissons Ratio (z) = 0.11510 0.18708
#
# Static dielectric constant tensor:
#      x y z
#    x 1.894220 0.000770 -0.043920 
#    y 0.000770 1.759080 -0.023150 
#    z -0.043920 -0.023150 1.830540 
# 
# From -- ./inp_files/314507.got.cif
#   From: 2010.05.17/outbox.cif.g08.bks.cpg/sg2_158_cif.got.tgz:314507.got - 2010.06.03 11:33:40.
