data_PCOD9005007
_publ_section_title
;
Structure prediction by ZEFSAII (Michael W. Deem and Ramdas Pophale) SiO2 
 PCOD9005007
Probable space group: P -1
;
_chemical_formula_sum "Si O2"
_cell_formula_units_Z 11
_cell_length_a 8.915290
_cell_length_b 4.850871
_cell_length_c 8.915277
_cell_angle_alpha 77.361215
_cell_angle_beta 70.749295
_cell_angle_gamma 102.638250
_cell_volume 337.001419
_symmetry_space_group_name_H-M "P -1"
_symmetry_group_IT_number 2
_symmetry_cell_setting 'triclinic'
loop_
_space_group_symop_operation_xyz
x,y,z
-x,-y,-z
loop_
_atom_site_type_symbol
_atom_site_label
_atom_site_fract_x
_atom_site_fract_y
_atom_site_fract_z
Si Si1 0.181993 0.518754 0.107498
Si Si2 0.680096 0.999997 0.180097
Si Si3 0.500000 0.000000 0.500000
Si Si4 0.000000 0.000000 0.000000
Si Si5 0.159242 0.500000 0.659240
Si Si6 0.607498 0.481250 0.681993
Si Si7 0.500000 0.500000 0.000000
O O1 0.315971 0.406749 0.184028
O O2 0.386379 0.726104 0.933954
O O3 0.030175 0.512342 0.273578
O O4 0.097935 0.231938 0.070790
O O5 0.507496 0.803069 0.355522
O O6 0.820503 0.785063 0.220150
O O7 0.720146 0.214946 0.320501
O O8 0.855518 0.196918 0.007492
O O9 0.570800 0.768080 0.597935
O O10 0.226423 0.512349 0.469822
O O11 0.433956 0.273905 0.886376
#
# Coordination Sequence:
#
# PCOD9005007 Si02
#       7
#     2   2   1   1   2   2   1
#     4   9  19  37  61  91 118 165 198 272 307 371
#     4  10  21  38  60  86 131 158 212 248 320 368
#     4  10  24  38  62  96 120 180 196 258 304 384
#     4  10  24  38  62  96 120 180 196 258 304 384
#     4  10  21  41  64  90 134 156 218 244 320 368
#     4   9  19  37  61  91 118 165 198 272 307 371
#     4   8  20  30  60  94 118 152 208 248 338 336
#
# _framework density 32.640810999999999
#
# number of rings (size 3 to 8) (size 9 to 14) (size 15 to 20)
#    1.091    1.455    0.000    1.091    0.000   10.182 
#    0.000    0.000    0.000    4.364    0.000    0.000 
#    0.000    0.000    0.000    0.000    0.000    0.000 
#
# Total GULP energy -61348.144502 kJ/mol
# GULP energy per Si atom -5577.104046 kJ/mol
# Density = 3.256652 g / cm^3
# Si number density = 32.640811 Si / 1000 Ang^3
#
#
#
# Elastic Constant Matrix: (Units=GPa)
#
#
# Indices 1 2 3 4 5 6 
#
# 1 426.2152 150.7817 186.9824 8.8250 -4.2723 -38.2727
# 2 150.7817 332.5724 101.3147 7.0873 45.5506 2.9754
# 3 186.9824 101.3147 436.9591 42.2221 14.3340 -23.1059
# 4 8.8250 7.0873 42.2221 85.4065 -17.9730 -29.2104
# 5 -4.2723 45.5506 14.3340 -17.9730 105.3230 18.6078
# 6 -38.2727 2.9754 -23.1059 -29.2104 18.6078 61.5957
#
#
#
# Elastic Compliance Matrix: (Units=1/GPa)
#
#
# Indices 1 2 3 4 5 6 
#
# 1 0.003553 -0.001384 -0.001230 0.001259 0.000738 0.002187
# 2 -0.001384 0.003968 -0.000252 -0.000758 -0.001691 -0.000994
# 3 -0.001230 -0.000252 0.003032 -0.001530 -0.000586 -0.000163
# 4 0.001259 -0.000758 -0.001530 0.015149 0.001964 0.006836
# 5 0.000738 -0.001691 -0.000586 0.001964 0.011039 -0.002082
# 6 0.002187 -0.000994 -0.000163 0.006836 -0.002082 0.021452
#
#
# Mechanical properties :
#
#
# Convention : Reuss Voigt Hill
#
# Bulk Modulus (GPa) = 207.39290 230.43378 218.91334
# Shear Modulus (GPa) = 76.30152 100.90958 88.60555
#
# Velocity S-wave (km/s) = 4.84013 5.56617 5.21580
# Velocity P-wave (km/s) = 9.74226 10.58583 10.17279
#
# Compressibility (1/GPa) = 0.00482177
#
# Stress axis : x y z
#
# Youngs Moduli (GPa) = 281.45146 252.04039 329.86414
#
# Poissons Ratio (x) = 0.34876 0.40566
# Poissons Ratio (y) = 0.38946 0.08302
# Poissons Ratio (z) = 0.34612 0.06343
#
# Static dielectric constant tensor:
#      x y z
#    x 14.174580 0.414240 -18.335560 
#    y 0.414240 2.616830 -0.662150 
#    z -18.335560 -0.662150 31.749190 
# 
# From -- ./inp_files/371799.got.cif
#   From: 2010.05.17/outbox.cif.g08.bks.cpg/sg2_186_cif.got.tgz:371799.got - 2010.06.03 11:33:40.
