data_PCOD9005581
_publ_section_title
;
Structure prediction by ZEFSAII (Michael W. Deem and Ramdas Pophale) SiO2 
 PCOD9005581
Probable space group: P -1
;
_chemical_formula_sum "Si O2"
_cell_formula_units_Z 14
_cell_length_a 9.000557
_cell_length_b 16.135318
_cell_length_c 13.826613
_cell_angle_alpha 46.204453
_cell_angle_beta 138.515666
_cell_angle_gamma 151.541067
_cell_volume 630.269057
_symmetry_space_group_name_H-M "P -1"
_symmetry_group_IT_number 2
_symmetry_cell_setting 'triclinic'
loop_
_space_group_symop_operation_xyz
x,y,z
-x,-y,-z
loop_
_atom_site_type_symbol
_atom_site_label
_atom_site_fract_x
_atom_site_fract_y
_atom_site_fract_z
Si Si1 0.998672 0.906934 0.658615
Si Si2 0.598325 0.360310 0.898537
Si Si3 0.268398 0.154422 0.082426
Si Si4 0.336874 0.928441 0.639352
Si Si5 0.798382 0.652246 0.450470
Si Si6 0.266475 0.687674 0.527800
Si Si7 0.296226 0.035230 0.893862
O O1 0.378746 0.246479 0.356696
O O2 0.227065 0.046274 0.742188
O O3 0.154858 0.861212 0.710909
O O4 0.000000 0.000000 0.500000
O O5 0.400796 0.373945 0.719867
O O6 0.491480 0.201563 0.919889
O O7 0.462461 0.318330 0.976240
O O8 0.000000 0.500000 0.000000
O O9 0.484661 0.126010 0.240583
O O10 0.058532 0.122770 0.095035
O O11 0.000000 0.000000 0.000000
O O12 0.608151 0.138721 0.594466
O O13 0.937673 0.166653 0.505093
O O14 0.500000 0.500000 0.500000
O O15 0.047641 0.644472 0.547874
O O16 0.000000 0.500000 0.500000
O O17 0.500000 0.000000 0.000000
#
# Coordination Sequence:
#
# PCOD9005581 Si02
#       7
#     2   2   2   2   2   2   2
#     4  10  21  38  62  94 129 168 214 271 325 380
#     4  11  24  44  67  95 130 172 220 273 330 398
#     4  10  21  41  66  93 127 175 219 260 322 399
#     4  11  22  43  69  96 133 179 222 269 330 400
#     4  12  25  43  67  98 133 179 225 270 329 402
#     4  11  23  38  62  98 135 169 215 273 327 383
#     4  11  23  41  66  96 129 170 218 268 327 392
#
# _framework density 22.212734999999999
#
# number of rings (size 3 to 8) (size 9 to 14) (size 15 to 20)
#    0.000    1.143    0.000    8.143    0.000    3.429 
#    0.000    0.714    0.000    0.000    0.000    3.000 
#    0.000    0.000    0.000    0.000    0.000    0.000 
#
# Total GULP energy -77976.675934 kJ/mol
# GULP energy per Si atom -5569.762567 kJ/mol
# Density = 2.216218 g / cm^3
# Si number density = 22.212735 Si / 1000 Ang^3
#
#
#
# Elastic Constant Matrix: (Units=GPa)
#
#
# Indices 1 2 3 4 5 6 
#
# 1 188.0304 39.7712 33.8072 3.2641 -7.7355 23.2420
# 2 39.7712 111.4643 40.1052 19.9682 -11.0802 6.0473
# 3 33.8072 40.1052 119.5626 18.3321 -11.4080 -0.7160
# 4 3.2641 19.9682 18.3321 30.4528 0.5529 -5.5031
# 5 -7.7355 -11.0802 -11.4080 0.5529 38.3822 2.7650
# 6 23.2420 6.0473 -0.7160 -5.5031 2.7650 43.6278
#
#
#
# Elastic Compliance Matrix: (Units=1/GPa)
#
#
# Indices 1 2 3 4 5 6 
#
# 1 0.006300 -0.001668 -0.001275 0.000613 0.000624 -0.003108
# 2 -0.001668 0.011939 -0.002269 -0.006660 0.002663 -0.001812
# 3 -0.001275 -0.002269 0.010404 -0.004599 0.002215 0.000444
# 4 0.000613 -0.006660 -0.004599 0.041061 -0.004187 0.005966
# 5 0.000624 0.002663 0.002215 -0.004187 0.027880 -0.002960
# 6 -0.003108 -0.001812 0.000444 0.005966 -0.002960 0.025775
#
#
# Mechanical properties :
#
#
# Convention : Reuss Voigt Hill
#
# Bulk Modulus (GPa) = 54.88581 71.82496 63.35538
# Shear Modulus (GPa) = 35.75092 42.85080 39.30086
#
# Velocity S-wave (km/s) = 4.01618 4.39693 4.21086
# Velocity P-wave (km/s) = 6.80214 7.62775 7.22674
#
# Compressibility (1/GPa) = 0.01821964
#
# Stress axis : x y z
#
# Youngs Moduli (GPa) = 158.74203 83.75865 96.11322
#
# Poissons Ratio (x) = 0.13973 0.12252
# Poissons Ratio (y) = 0.26482 0.21805
# Poissons Ratio (z) = 0.20235 0.19003
#
# Static dielectric constant tensor:
#      x y z
#    x 1.840030 0.004180 0.093840 
#    y 0.004180 1.841150 0.014260 
#    z 0.093840 0.014260 1.814230 
# 
# From -- ./inp_files/403044.got.cif
#   From: 2010.05.17/outbox.cif.g08.bks.cpg/sg2_202_cif.got.tgz:403044.got - 2010.06.03 11:33:40.
