data_PCOD9005259
_publ_section_title
;
Structure prediction by ZEFSAII (Michael W. Deem and Ramdas Pophale) SiO2 
 PCOD9005259
Probable space group: P -1
;
_chemical_formula_sum "Si O2"
_cell_formula_units_Z 15
_cell_length_a 7.998950
_cell_length_b 18.294117
_cell_length_c 20.999795
_cell_angle_alpha 160.142590
_cell_angle_beta 35.782820
_cell_angle_gamma 135.355991
_cell_volume 589.454137
_symmetry_space_group_name_H-M "P -1"
_symmetry_group_IT_number 2
_symmetry_cell_setting 'triclinic'
loop_
_space_group_symop_operation_xyz
x,y,z
-x,-y,-z
loop_
_atom_site_type_symbol
_atom_site_label
_atom_site_fract_x
_atom_site_fract_y
_atom_site_fract_z
Si Si1 0.960484 0.718535 0.004904
Si Si2 0.197198 0.610647 0.982977
Si Si3 0.500000 0.500000 0.000000
Si Si4 0.382145 0.818564 0.514856
Si Si5 0.599131 0.039804 0.095416
Si Si6 0.547054 0.627698 0.692074
Si Si7 0.723380 0.141727 0.274496
Si Si8 0.881254 0.023756 0.484466
O O1 0.646739 0.666172 0.047494
O O2 0.212419 0.607973 0.787197
O O3 0.052860 0.615636 0.961905
O O4 0.916373 0.986422 0.242709
O O5 0.526791 0.445456 0.743937
O O6 0.133519 0.862263 0.232146
O O7 0.000000 0.500000 0.000000
O O8 0.755455 0.279576 0.714787
O O9 0.425429 0.835781 0.591964
O O10 0.607752 0.909010 0.475339
O O11 0.558948 0.810394 0.891706
O O12 0.947099 0.019055 0.956410
O O13 0.415530 0.253112 0.287563
O O14 0.560222 0.066538 0.204087
O O15 0.752939 0.387224 0.446124
O O16 0.000000 0.000000 0.500000
#
# Coordination Sequence:
#
# PCOD9005259 Si02
#       8
#     2   2   1   2   2   2   2   2
#     4  11  22  40  63  90 129 168 213 265 320 387
#     4  10  21  38  63  87 119 172 210 264 322 376
#     4  10  22  38  60  90 126 168 200 266 310 372
#     4  10  21  38  61  89 125 167 208 266 316 388
#     4  10  24  41  68  99 127 171 217 272 333 389
#     4  11  22  42  68  95 132 168 218 272 330 388
#     4  11  21  42  70  94 133 167 217 269 332 394
#     4  10  22  37  61  86 124 162 215 259 316 378
#
# _framework density 25.447271000000001
#
# number of rings (size 3 to 8) (size 9 to 14) (size 15 to 20)
#    0.000    1.600    2.667    2.400    0.000    6.933 
#    0.000    0.000    0.000    0.000    0.000    0.000 
#    0.000    0.000    0.000    0.000    0.000    0.000 
#
# Total GULP energy -83564.948376 kJ/mol
# GULP energy per Si atom -5570.996558 kJ/mol
# Density = 2.538935 g / cm^3
# Si number density = 25.447271 Si / 1000 Ang^3
#
#
#
# Elastic Constant Matrix: (Units=GPa)
#
#
# Indices 1 2 3 4 5 6 
#
# 1 39.3636 17.5720 12.0727 7.0605 2.9423 -16.8494
# 2 17.5720 95.5264 18.4763 2.8015 2.1934 -13.8662
# 3 12.0727 18.4763 181.6781 15.5934 -15.9247 -20.2705
# 4 7.0605 2.8015 15.5934 35.8368 -9.5279 -10.1803
# 5 2.9423 2.1934 -15.9247 -9.5279 33.2232 6.1042
# 6 -16.8494 -13.8662 -20.2705 -10.1803 6.1042 25.0314
#
#
#
# Elastic Compliance Matrix: (Units=1/GPa)
#
#
# Indices 1 2 3 4 5 6 
#
# 1 0.038804 -0.003177 0.000047 -0.002460 -0.008594 0.025493
# 2 -0.003177 0.011857 -0.000685 0.000928 -0.001408 0.004596
# 3 0.000047 -0.000685 0.006264 -0.001060 0.002042 0.003796
# 4 -0.002460 0.000928 -0.001060 0.033554 0.007466 0.009826
# 5 -0.008594 -0.001408 0.002042 0.007466 0.036032 -0.010661
# 6 0.025493 0.004596 0.003796 0.009826 -0.010661 0.069326
#
#
# Mechanical properties :
#
#
# Convention : Reuss Voigt Hill
#
# Bulk Modulus (GPa) = 20.28592 45.86778 33.07685
# Shear Modulus (GPa) = 22.73758 36.71476 29.72617
#
# Velocity S-wave (km/s) = 2.99242 3.80251 3.42153
# Velocity P-wave (km/s) = 4.46413 6.11086 5.35122
#
# Compressibility (1/GPa) = 0.04929527
#
# Stress axis : x y z
#
# Youngs Moduli (GPa) = 25.77049 84.33503 159.63465
#
# Poissons Ratio (x) = 0.26793 -0.00747
# Poissons Ratio (y) = 0.08187 0.10936
# Poissons Ratio (z) = -0.00121 0.05777
#
# Static dielectric constant tensor:
#      x y z
#    x 2.124480 0.096970 -0.040300 
#    y 0.096970 2.001310 -0.031920 
#    z -0.040300 -0.031920 2.043760 
# 
# From -- ./inp_files/591029.got.cif
#   From: 2010.05.17/outbox.cif.g08.bks.cpg/sg2_296_cif.got.tgz:591029.got - 2010.06.03 11:33:40.
