data_PCOD9005811
_publ_section_title
;
Structure prediction by ZEFSAII (Michael W. Deem and Ramdas Pophale) SiO2 
 PCOD9005811
Probable space group: P -1
;
_chemical_formula_sum "Si O2"
_cell_formula_units_Z 16
_cell_length_a 13.157241
_cell_length_b 9.769972
_cell_length_c 17.876436
_cell_angle_alpha 36.801600
_cell_angle_beta 145.575567
_cell_angle_gamma 146.358335
_cell_volume 670.315824
_symmetry_space_group_name_H-M "P -1"
_symmetry_group_IT_number 2
_symmetry_cell_setting 'triclinic'
loop_
_space_group_symop_operation_xyz
x,y,z
-x,-y,-z
loop_
_atom_site_type_symbol
_atom_site_label
_atom_site_fract_x
_atom_site_fract_y
_atom_site_fract_z
Si Si1 0.169212 0.840725 0.019582
Si Si2 0.720582 0.534019 0.920214
Si Si3 0.196403 0.685035 0.691916
Si Si4 0.388885 0.954611 0.846420
Si Si5 0.807436 0.685136 0.415287
Si Si6 0.609693 0.752073 0.898475
Si Si7 0.956681 0.790485 0.302423
Si Si8 0.424578 0.185428 0.409957
O O1 0.373920 0.831753 0.126574
O O2 0.229631 0.000740 0.064098
O O3 0.945835 0.586547 0.008467
O O4 0.132138 0.023658 0.859157
O O5 0.717165 0.692227 0.922247
O O6 0.630298 0.644572 0.755232
O O7 0.595612 0.230838 0.000774
O O8 0.271711 0.753988 0.793283
O O9 0.420316 0.795465 0.738665
O O10 0.038694 0.792338 0.539605
O O11 0.066436 0.389743 0.705121
O O12 0.259383 0.095787 0.722896
O O13 0.633195 0.427544 0.467644
O O14 0.826107 0.615776 0.370147
O O15 0.500000 0.500000 0.000000
O O16 0.194608 0.979048 0.391825
O O17 0.500000 0.000000 0.500000
#
# Coordination Sequence:
#
# PCOD9005811 Si02
#       8
#     2   2   2   2   2   2   2   2
#     4  10  21  38  63  94 129 163 213 275 317 381
#     4  11  22  39  67  94 128 169 214 269 326 376
#     4  11  21  40  68  94 130 168 217 266 319 382
#     4  11  24  45  64  96 132 174 217 257 326 398
#     4  12  26  42  67  92 136 179 207 266 328 378
#     4  11  18  35  66  98 125 165 217 272 323 375
#     4  11  22  41  68  97 123 165 223 271 319 376
#     4  11  25  41  63  98 129 166 217 266 322 386
#
# _framework density 23.869346
#
# number of rings (size 3 to 8) (size 9 to 14) (size 15 to 20)
#    0.000    1.000    5.000    2.625    1.750    4.000 
#    0.000    2.500    0.000    3.750    0.000    0.000 
#    0.000    0.000    0.000    0.000    0.000    0.000 
#
# Total GULP energy -89367.776217 kJ/mol
# GULP energy per Si atom -5585.486014 kJ/mol
# Density = 2.381502 g / cm^3
# Si number density = 23.869346 Si / 1000 Ang^3
#
#
#
# Elastic Constant Matrix: (Units=GPa)
#
#
# Indices 1 2 3 4 5 6 
#
# 1 91.8793 35.4402 35.0395 6.8218 21.0468 6.3851
# 2 35.4402 90.2974 21.6032 14.3718 3.8620 17.3394
# 3 35.0395 21.6032 106.0422 17.9940 45.4627 7.7883
# 4 6.8218 14.3718 17.9940 38.1830 0.8938 12.8552
# 5 21.0468 3.8620 45.4627 0.8938 36.8509 10.1620
# 6 6.3851 17.3394 7.7883 12.8552 10.1620 39.0228
#
#
#
# Elastic Compliance Matrix: (Units=1/GPa)
#
#
# Indices 1 2 3 4 5 6 
#
# 1 0.015045 -0.005863 -0.000094 -0.001174 -0.008603 0.002790
# 2 -0.005863 0.015582 -0.004801 -0.000277 0.009697 -0.007440
# 3 -0.000094 -0.004801 0.027303 -0.013751 -0.035696 0.010525
# 4 -0.001174 -0.000277 -0.013751 0.037444 0.020808 -0.014694
# 5 -0.008603 0.009697 -0.035696 0.020808 0.081118 -0.023756
# 6 0.002790 -0.007440 0.010525 -0.014694 -0.023756 0.037402
#
#
# Mechanical properties :
#
#
# Convention : Reuss Voigt Hill
#
# Bulk Modulus (GPa) = 27.46173 52.48719 39.97446
# Shear Modulus (GPa) = 20.19790 35.88707 28.04249
#
# Velocity S-wave (km/s) = 2.91208 3.88168 3.43130
# Velocity P-wave (km/s) = 4.77880 6.49053 5.69930
#
# Compressibility (1/GPa) = 0.03641432
#
# Stress axis : x y z
#
# Youngs Moduli (GPa) = 66.46531 64.17474 36.62534
#
# Poissons Ratio (x) = 0.37628 0.00345
# Poissons Ratio (y) = 0.38971 0.17584
# Poissons Ratio (z) = 0.00627 0.30810
#
# Static dielectric constant tensor:
#      x y z
#    x 1.926070 0.007310 -0.016060 
#    y 0.007310 1.949830 0.038840 
#    z -0.016060 0.038840 1.920230 
# 
# From -- ./inp_files/597815.got.cif
#   From: 2010.05.17/outbox.cif.g08.bks.cpg/sg2_299_cif.got.tgz:597815.got - 2010.06.03 11:33:40.
