data_PCOD9005144
_publ_section_title
;
Structure prediction by ZEFSAII (Michael W. Deem and Ramdas Pophale) SiO2 
 PCOD9005144
Probable space group: P -1
;
_chemical_formula_sum "Si O2"
_cell_formula_units_Z 14
_cell_length_a 8.700416
_cell_length_b 11.216532
_cell_length_c 8.791860
_cell_angle_alpha 111.827936
_cell_angle_beta 70.360614
_cell_angle_gamma 61.054654
_cell_volume 538.272702
_symmetry_space_group_name_H-M "P -1"
_symmetry_group_IT_number 2
_symmetry_cell_setting 'triclinic'
loop_
_space_group_symop_operation_xyz
x,y,z
-x,-y,-z
loop_
_atom_site_type_symbol
_atom_site_label
_atom_site_fract_x
_atom_site_fract_y
_atom_site_fract_z
Si Si1 0.599800 0.214629 0.838142
Si Si2 0.897977 0.972942 0.158657
Si Si3 0.556930 0.107596 0.100651
Si Si4 0.939490 0.507425 0.847908
Si Si5 0.748811 0.517126 0.453119
Si Si6 0.635226 0.339244 0.592424
Si Si7 0.758262 0.895022 0.424727
O O1 0.641465 0.312316 0.757995
O O2 0.706145 0.035261 0.628696
O O3 0.667535 0.147285 0.957908
O O4 0.327745 0.361912 0.008310
O O5 0.947311 0.844291 0.214834
O O6 0.723381 0.984943 0.124281
O O7 0.776493 0.147294 0.381772
O O8 0.000000 0.000000 0.000000
O O9 0.367703 0.298461 0.337193
O O10 0.500000 0.000000 0.000000
O O11 0.010652 0.579845 0.742261
O O12 0.109768 0.299247 0.647202
O O13 0.000000 0.500000 0.000000
O O14 0.741836 0.411193 0.531225
O O15 0.604213 0.546902 0.366165
O O16 0.500000 0.000000 0.500000
#
# Coordination Sequence:
#
# PCOD9005144 Si02
#       7
#     2   2   2   2   2   2   2
#     4  11  23  41  63  95 133 176 213 280 336 390
#     4  10  23  41  68  96 126 181 226 273 326 400
#     4  11  24  41  66  97 142 177 215 278 352 388
#     4  12  22  35  67  98 124 171 229 270 323 393
#     4  10  21  38  60  94 130 170 221 272 318 402
#     4   9  20  39  62  89 130 172 221 267 327 393
#     4  11  21  40  65  96 134 172 228 272 325 401
#
# _framework density 26.009121
#
# number of rings (size 3 to 8) (size 9 to 14) (size 15 to 20)
#    0.000    1.429    2.857    3.429    2.000    2.286 
#    0.000    4.286    0.000    0.000    0.000    0.000 
#    0.000    0.000    0.000    0.000    0.000    0.000 
#
# Total GULP energy -78173.981755 kJ/mol
# GULP energy per Si atom -5583.855840 kJ/mol
# Density = 2.594992 g / cm^3
# Si number density = 26.009121 Si / 1000 Ang^3
#
#
#
# Elastic Constant Matrix: (Units=GPa)
#
#
# Indices 1 2 3 4 5 6 
#
# 1 44.7371 37.4301 29.4330 -10.1981 1.5849 5.3098
# 2 37.4301 149.6016 65.6098 -31.6237 -8.4492 19.6033
# 3 29.4330 65.6098 120.8918 -34.3279 -4.6932 12.8959
# 4 -10.1981 -31.6237 -34.3279 71.3971 15.0723 -7.0474
# 5 1.5849 -8.4492 -4.6932 15.0723 36.3321 -9.4376
# 6 5.3098 19.6033 12.8959 -7.0474 -9.4376 48.6850
#
#
#
# Elastic Compliance Matrix: (Units=1/GPa)
#
#
# Indices 1 2 3 4 5 6 
#
# 1 0.030212 -0.005765 -0.004186 0.000442 -0.003508 -0.000481
# 2 -0.005765 0.010340 -0.003462 0.001676 0.000944 -0.002192
# 3 -0.004186 -0.003462 0.012351 0.003898 -0.000913 -0.001034
# 4 0.000442 0.001676 0.003898 0.018064 -0.006736 -0.000447
# 5 -0.003508 0.000944 -0.000913 -0.006736 0.031994 0.005471
# 6 -0.000481 -0.002192 -0.001034 -0.000447 0.005471 0.022745
#
#
# Mechanical properties :
#
#
# Convention : Reuss Voigt Hill
#
# Bulk Modulus (GPa) = 38.34590 64.46405 51.40497
# Shear Modulus (GPa) = 31.01262 43.46670 37.23966
#
# Velocity S-wave (km/s) = 3.45682 4.09248 3.78801
# Velocity P-wave (km/s) = 5.54149 6.86805 6.24012
#
# Compressibility (1/GPa) = 0.02607841
#
# Stress axis : x y z
#
# Youngs Moduli (GPa) = 33.09895 96.71395 80.96204
#
# Poissons Ratio (x) = 0.55753 0.33894
# Poissons Ratio (y) = 0.19081 0.28025
# Poissons Ratio (z) = 0.13856 0.33478
#
# Static dielectric constant tensor:
#      x y z
#    x 1.578430 -0.177340 -0.023220 
#    y -0.177340 2.017590 0.032870 
#    z -0.023220 0.032870 2.047540 
# 
# From -- ./inp_files/189868.got.cif
#   From: 2010.05.17/outbox.cif.g08.bks.cpg/sg2_95_cif.got.tgz:189868.got - 2010.06.03 11:33:40.
