data_PCOD9005057
_publ_section_title
;
Structure prediction by ZEFSAII (Michael W. Deem and Ramdas Pophale) SiO2 
 PCOD9005057
Probable space group: P -1
;
_chemical_formula_sum "Si O2"
_cell_formula_units_Z 15
_cell_length_a 8.893682
_cell_length_b 18.717762
_cell_length_c 17.613961
_cell_angle_alpha 157.965844
_cell_angle_beta 37.008295
_cell_angle_gamma 146.775097
_cell_volume 598.915986
_symmetry_space_group_name_H-M "P -1"
_symmetry_group_IT_number 2
_symmetry_cell_setting 'triclinic'
loop_
_space_group_symop_operation_xyz
x,y,z
-x,-y,-z
loop_
_atom_site_type_symbol
_atom_site_label
_atom_site_fract_x
_atom_site_fract_y
_atom_site_fract_z
Si Si1 0.982081 0.637150 0.473143
Si Si2 0.284550 0.662846 0.966283
Si Si3 0.500000 0.500000 0.000000
Si Si4 0.429303 0.818519 0.785743
Si Si5 0.152684 0.053847 0.398704
Si Si6 0.172070 0.065910 0.070784
Si Si7 0.478510 0.400433 0.735506
Si Si8 0.184079 0.741428 0.322608
O O1 0.703350 0.420637 0.369912
O O2 0.938885 0.823211 0.714530
O O3 0.078559 0.704573 0.415392
O O4 0.216621 0.595132 0.382233
O O5 0.169099 0.836415 0.199202
O O6 0.519697 0.767311 0.911131
O O7 0.427197 0.592832 0.908108
O O8 0.035254 0.460036 0.833315
O O9 0.424808 0.397446 0.844255
O O10 0.535249 0.287381 0.810686
O O11 0.664072 0.868126 0.676163
O O12 0.500000 0.000000 0.000000
O O13 0.179703 0.851504 0.881212
O O14 0.301937 0.211692 0.562996
O O15 0.867795 0.070495 0.509074
O O16 0.000000 0.000000 0.000000
#
# Coordination Sequence:
#
# PCOD9005057 Si02
#       8
#     2   2   1   2   2   2   2   2
#     4  11  20  35  58  86 122 163 196 233 290 346
#     4  10  21  38  60  89 120 153 192 234 289 356
#     4  10  24  46  62  84 112 144 200 262 306 340
#     4  11  22  34  55  90 127 160 194 231 279 352
#     4  10  21  38  60  89 120 153 192 234 289 356
#     4  11  22  34  55  90 127 160 194 231 279 352
#     4  10  22  40  62  83 115 155 196 249 298 344
#     4  10  22  40  62  83 115 155 196 249 298 344
#
# _framework density 25.045248999999998
#
# number of rings (size 3 to 8) (size 9 to 14) (size 15 to 20)
#    0.000    1.600    0.000    6.400    0.000    5.333 
#    0.000    8.000    0.000    0.000    0.000    0.000 
#    0.000    0.000    0.000    0.000    0.000    0.000 
#
# Total GULP energy -83588.154853 kJ/mol
# GULP energy per Si atom -5572.543657 kJ/mol
# Density = 2.498824 g / cm^3
# Si number density = 25.045249 Si / 1000 Ang^3
#
#
#
# Elastic Constant Matrix: (Units=GPa)
#
#
# Indices 1 2 3 4 5 6 
#
# 1 163.0396 4.8751 55.8579 -0.3146 -35.9906 -14.2602
# 2 4.8751 42.3088 22.6081 -0.5015 2.9495 -8.5431
# 3 55.8579 22.6081 130.1282 2.9774 -18.9755 -11.4070
# 4 -0.3146 -0.5015 2.9774 30.7716 -8.5303 -1.2464
# 5 -35.9906 2.9495 -18.9755 -8.5303 70.3142 -7.2773
# 6 -14.2602 -8.5431 -11.4070 -1.2464 -7.2773 30.2246
#
#
#
# Elastic Compliance Matrix: (Units=1/GPa)
#
#
# Indices 1 2 3 4 5 6 
#
# 1 0.008358 0.001155 -0.002856 0.001690 0.004104 0.004250
# 2 0.001155 0.027471 -0.004909 0.000871 -0.001136 0.006220
# 3 -0.002856 -0.004909 0.010130 -0.000600 0.001554 0.001437
# 4 0.001690 0.000871 -0.000600 0.034161 0.005170 0.003471
# 5 0.004104 -0.001136 0.001554 0.005170 0.018118 0.006777
# 6 0.004250 0.006220 0.001437 0.003471 0.006777 0.039166
#
#
# Mechanical properties :
#
#
# Convention : Reuss Voigt Hill
#
# Bulk Modulus (GPa) = 30.54427 55.79542 43.16984
# Shear Modulus (GPa) = 30.95247 43.07112 37.01180
#
# Velocity S-wave (km/s) = 3.51930 4.15146 3.84838
# Velocity P-wave (km/s) = 5.36060 6.73095 6.08448
#
# Compressibility (1/GPa) = 0.03273937
#
# Stress axis : x y z
#
# Youngs Moduli (GPa) = 119.63979 36.40170 98.71714
#
# Poissons Ratio (x) = -0.04205 0.28196
# Poissons Ratio (y) = -0.13821 0.48461
# Poissons Ratio (z) = 0.34172 0.17870
#
# Static dielectric constant tensor:
#      x y z
#    x 1.943530 0.084250 -0.052130 
#    y 0.084250 2.084360 -0.023510 
#    z -0.052130 -0.023510 1.949110 
# 
# From -- ./inp_files/337882.got.cif
#   From: 2010.05.17/outbox.cif.g08.bks.cpg/sg2_169_cif.got.tgz:337882.got - 2010.06.03 11:33:40.
