data_PCOD9005792
_publ_section_title
;
Structure prediction by ZEFSAII (Michael W. Deem and Ramdas Pophale) SiO2 
 PCOD9005792
Probable space group: P -1
;
_chemical_formula_sum "Si O2"
_cell_formula_units_Z 16
_cell_length_a 15.269212
_cell_length_b 12.111255
_cell_length_c 7.949616
_cell_angle_alpha 94.292225
_cell_angle_beta 104.099000
_cell_angle_gamma 27.830023
_cell_volume 632.754146
_symmetry_space_group_name_H-M "P -1"
_symmetry_group_IT_number 2
_symmetry_cell_setting 'triclinic'
loop_
_space_group_symop_operation_xyz
x,y,z
-x,-y,-z
loop_
_atom_site_type_symbol
_atom_site_label
_atom_site_fract_x
_atom_site_fract_y
_atom_site_fract_z
Si Si1 0.051292 0.849935 0.225719
Si Si2 0.251984 0.342400 0.553423
Si Si3 0.262099 0.612680 0.962845
Si Si4 0.728351 0.843092 0.758063
Si Si5 0.717901 0.244091 0.496050
Si Si6 0.976641 0.764995 0.690783
Si Si7 0.309669 0.132518 0.876771
Si Si8 0.306269 0.882557 0.852306
O O1 0.157882 0.776791 0.437385
O O2 0.884423 0.127055 0.132228
O O3 0.916004 0.888691 0.147180
O O4 0.233991 0.645788 0.154439
O O5 0.238044 0.301258 0.360372
O O6 0.222774 0.285764 0.686328
O O7 0.070461 0.626136 0.539245
O O8 0.483063 0.133293 0.660766
O O9 0.173203 0.592841 0.861298
O O10 0.491705 0.371082 0.979153
O O11 0.853269 0.804407 0.727186
O O12 0.790124 0.764053 0.972952
O O13 0.500000 0.500000 0.500000
O O14 0.703346 0.196653 0.309307
O O15 0.833517 0.027759 0.639817
O O16 0.347700 0.963009 0.827681
O O17 0.500000 0.000000 0.000000
#
# Coordination Sequence:
#
# PCOD9005792 Si02
#       8
#     2   2   2   2   2   2   2   2
#     4  10  22  41  63  96 129 176 232 276 350 415
#     4  10  22  43  66 100 143 182 236 296 347 421
#     4  10  21  38  63  93 133 173 221 288 336 414
#     4  10  21  41  68 101 139 186 233 288 358 417
#     4  11  24  46  66  99 142 181 229 298 346 409
#     4  11  23  42  69  98 137 185 234 282 359 419
#     4  10  22  41  68 104 140 179 234 287 345 422
#     4  12  22  41  68  96 136 182 225 283 353 413
#
# _framework density 25.286283000000001
#
# number of rings (size 3 to 8) (size 9 to 14) (size 15 to 20)
#    0.000    1.500    1.250    4.125    0.000    0.500 
#    9.000    6.250    0.000    0.000    0.000    0.000 
#    0.000    0.000    0.000    0.000    0.000    0.000 
#
# Total GULP energy -89456.775861 kJ/mol
# GULP energy per Si atom -5591.048491 kJ/mol
# Density = 2.522873 g / cm^3
# Si number density = 25.286283 Si / 1000 Ang^3
#
#
#
# Elastic Constant Matrix: (Units=GPa)
#
#
# Indices 1 2 3 4 5 6 
#
# 1 129.6871 45.9795 17.8468 -2.6888 29.0919 -16.6953
# 2 45.9795 117.0725 24.2106 2.6179 7.1131 -12.6483
# 3 17.8468 24.2106 98.1208 18.2800 20.7523 -9.0218
# 4 -2.6888 2.6179 18.2800 35.4262 -5.2691 2.3121
# 5 29.0919 7.1131 20.7523 -5.2691 38.1769 -0.7816
# 6 -16.6953 -12.6483 -9.0218 2.3121 -0.7816 35.7499
#
#
#
# Elastic Compliance Matrix: (Units=1/GPa)
#
#
# Indices 1 2 3 4 5 6 
#
# 1 0.011313 -0.003704 0.001283 -0.001095 -0.008694 0.004177
# 2 -0.003704 0.010487 -0.002322 0.000378 0.002212 0.001418
# 3 0.001283 -0.002322 0.014584 -0.008938 -0.009628 0.003826
# 4 -0.001095 0.000378 -0.008938 0.034564 0.010298 -0.004644
# 5 -0.008694 0.002212 -0.009628 0.010298 0.038949 -0.005522
# 6 0.004177 0.001418 0.003826 -0.004644 -0.005522 0.031570
#
#
# Mechanical properties :
#
#
# Convention : Reuss Voigt Hill
#
# Bulk Modulus (GPa) = 37.17693 57.88379 47.53036
# Shear Modulus (GPa) = 31.26591 38.99352 35.12971
#
# Velocity S-wave (km/s) = 3.52017 3.93120 3.73135
# Velocity P-wave (km/s) = 5.59075 6.59900 6.11569
#
# Compressibility (1/GPa) = 0.02689840
#
# Stress axis : x y z
#
# Youngs Moduli (GPa) = 88.39458 95.35511 68.56642
#
# Poissons Ratio (x) = 0.35324 -0.08799
# Poissons Ratio (y) = 0.32745 0.15920
# Poissons Ratio (z) = -0.11343 0.22140
#
# Static dielectric constant tensor:
#      x y z
#    x 2.032480 -0.013920 -0.011600 
#    y -0.013920 2.024920 -0.006020 
#    z -0.011600 -0.006020 2.058310 
# 
# From -- ./inp_files/307794.got.cif
#   From: 2010.05.17/outbox.cif.g08.bks.cpg/sg2_154_cif.got.tgz:307794.got - 2010.06.03 11:33:40.
