data_PCOD9005318
_publ_section_title
;
Structure prediction by ZEFSAII (Michael W. Deem and Ramdas Pophale) SiO2 
 PCOD9005318
Probable space group: P -1
;
_chemical_formula_sum "Si O2"
_cell_formula_units_Z 14
_cell_length_a 23.816083
_cell_length_b 6.787621
_cell_length_c 5.490023
_cell_angle_alpha 130.809806
_cell_angle_beta 85.914945
_cell_angle_gamma 115.433991
_cell_volume 577.441200
_symmetry_space_group_name_H-M "P -1"
_symmetry_group_IT_number 2
_symmetry_cell_setting 'triclinic'
loop_
_space_group_symop_operation_xyz
x,y,z
-x,-y,-z
loop_
_atom_site_type_symbol
_atom_site_label
_atom_site_fract_x
_atom_site_fract_y
_atom_site_fract_z
Si Si1 0.304427 0.968379 0.810002
Si Si2 0.424049 0.139922 0.613609
Si Si3 0.917851 0.602990 0.073034
Si Si4 0.039458 0.758113 0.502371
Si Si5 0.798630 0.579022 0.334534
Si Si6 0.456775 0.754794 0.018403
Si Si7 0.760758 0.644602 0.895313
O O1 0.267651 0.744291 0.863765
O O2 0.268161 0.716667 0.404681
O O3 0.378821 0.082301 0.815211
O O4 0.289539 0.237808 0.033419
O O5 0.495190 0.231678 0.770340
O O6 0.407447 0.851018 0.221327
O O7 0.424089 0.405554 0.671075
O O8 0.859671 0.537513 0.221235
O O9 0.984759 0.705280 0.278195
O O10 0.929670 0.894593 0.149185
O O11 0.908952 0.324027 0.692523
O O12 0.000000 0.500000 0.500000
O O13 0.806655 0.751504 0.726569
O O14 0.788544 0.732250 0.226143
O O15 0.500000 0.000000 0.000000
#
# Coordination Sequence:
#
# PCOD9005318 Si02
#       7
#     2   2   2   2   2   2   2
#     4  10  24  41  64  95 129 170 212 268 313 385
#     4  10  21  39  61  90 125 155 212 249 316 369
#     4  10  23  38  63  90 124 157 215 248 322 370
#     4  10  22  40  61  92 120 163 203 265 309 378
#     4  10  26  43  67  96 129 173 209 269 312 389
#     4  10  21  38  61  92 120 166 199 257 308 377
#     4  10  25  41  65  92 132 165 221 248 329 365
#
# _framework density 24.244893000000001
#
# number of rings (size 3 to 8) (size 9 to 14) (size 15 to 20)
#    0.857    1.143    0.000    1.714    6.000    3.429 
#    0.000    0.000    0.000    0.000    0.000    0.000 
#    0.000    0.000    0.000    0.000    0.000    0.000 
#
# Total GULP energy -78066.091015 kJ/mol
# GULP energy per Si atom -5576.149358 kJ/mol
# Density = 2.418971 g / cm^3
# Si number density = 24.244893 Si / 1000 Ang^3
#
#
#
# Elastic Constant Matrix: (Units=GPa)
#
#
# Indices 1 2 3 4 5 6 
#
# 1 83.5574 25.1043 44.0230 1.8609 -55.9488 9.5538
# 2 25.1043 118.1087 53.3076 2.0824 -21.3501 -2.4623
# 3 44.0230 53.3076 74.8237 -3.5532 -38.6802 -12.7655
# 4 1.8609 2.0824 -3.5532 30.4484 -1.2271 -6.0122
# 5 -55.9488 -21.3501 -38.6802 -1.2271 50.0396 -1.0353
# 6 9.5538 -2.4623 -12.7655 -6.0122 -1.0353 35.1755
#
#
#
# Elastic Compliance Matrix: (Units=1/GPa)
#
#
# Indices 1 2 3 4 5 6 
#
# 1 0.054728 0.001721 -0.008035 -0.005527 0.055227 -0.016979
# 2 0.001721 0.013416 -0.012853 -0.003586 -0.002476 -0.004879
# 3 -0.008035 -0.012853 0.039309 0.010132 0.016534 0.017766
# 4 -0.005527 -0.003586 0.010132 0.036884 0.001260 0.011268
# 5 0.055227 -0.002476 0.016534 0.001260 0.093359 -0.006210
# 6 -0.016979 -0.004879 0.017766 0.011268 -0.006210 0.040890
#
#
# Mechanical properties :
#
#
# Convention : Reuss Voigt Hill
#
# Bulk Modulus (GPa) = 14.46808 57.92884 36.19846
# Shear Modulus (GPa) = 14.70763 33.40302 24.05533
#
# Velocity S-wave (km/s) = 2.46565 3.71581 3.15331
# Velocity P-wave (km/s) = 3.75318 6.50805 5.31230
#
# Compressibility (1/GPa) = 0.06911766
#
# Stress axis : x y z
#
# Youngs Moduli (GPa) = 18.27227 74.53660 25.43967
#
# Poissons Ratio (x) = -0.12825 0.20440
# Poissons Ratio (y) = -0.03144 0.32699
# Poissons Ratio (z) = 0.14681 0.95805
#
# Static dielectric constant tensor:
#      x y z
#    x 1.929050 0.029010 -0.000660 
#    y 0.029010 1.958740 0.031180 
#    z -0.000660 0.031180 2.037660 
# 
# From -- ./inp_files/12311.got.cif
#   From: 2010.05.17/outbox.cif.g08.bks.cpg/sg2_7_cif.got.tgz:12311.got - 2010.06.03 11:33:40.
