data_PCOD9005675
_publ_section_title
;
Structure prediction by ZEFSAII (Michael W. Deem and Ramdas Pophale) SiO2 
 PCOD9005675
Probable space group: P -1
;
_chemical_formula_sum "Si O2"
_cell_formula_units_Z 16
_cell_length_a 9.425013
_cell_length_b 8.581486
_cell_length_c 15.892991
_cell_angle_alpha 121.640674
_cell_angle_beta 123.479254
_cell_angle_gamma 105.590972
_cell_volume 564.295595
_symmetry_space_group_name_H-M "P -1"
_symmetry_group_IT_number 2
_symmetry_cell_setting 'triclinic'
loop_
_space_group_symop_operation_xyz
x,y,z
-x,-y,-z
loop_
_atom_site_type_symbol
_atom_site_label
_atom_site_fract_x
_atom_site_fract_y
_atom_site_fract_z
Si Si1 0.424212 0.551726 0.071159
Si Si2 0.243501 0.454047 0.451312
Si Si3 0.113874 0.937856 0.311072
Si Si4 0.760916 0.538528 0.242900
Si Si5 0.239798 0.857628 0.594796
Si Si6 0.861370 0.243733 0.108892
Si Si7 0.587640 0.259737 0.656554
Si Si8 0.678272 0.762024 0.810342
O O1 0.520307 0.482678 0.150173
O O2 0.597661 0.882856 0.213268
O O3 0.500000 0.500000 0.000000
O O4 0.102040 0.317361 0.900603
O O5 0.133854 0.168690 0.365498
O O6 0.072306 0.337321 0.274696
O O7 0.566527 0.706393 0.661678
O O8 0.189979 0.603154 0.519459
O O9 0.400258 0.072997 0.457201
O O10 0.973251 0.796825 0.315813
O O11 0.721984 0.301986 0.124499
O O12 0.942849 0.688927 0.428410
O O13 0.440834 0.060917 0.636362
O O14 0.088268 0.497864 0.185500
O O15 0.650457 0.923542 0.905064
O O16 0.562076 0.461539 0.706666
O O17 0.000000 0.000000 0.000000
#
# Coordination Sequence:
#
# PCOD9005675 Si02
#       8
#     2   2   2   2   2   2   2   2
#     4  10  21  38  63  89 118 162 205 252 306 364
#     4  10  22  38  60  92 125 162 202 254 302 363
#     4   9  20  37  59  88 123 155 201 248 311 355
#     4   9  20  39  63  85 122 166 200 253 305 362
#     4  10  21  38  63  89 120 160 209 249 303 367
#     4  10  21  39  63  91 128 161 206 250 305 364
#     4   9  20  40  60  89 124 164 197 252 309 365
#     4   9  20  37  58  88 126 165 198 248 304 359
#
# _framework density 28.353936000000001
#
# number of rings (size 3 to 8) (size 9 to 14) (size 15 to 20)
#    0.000    2.500    0.000    0.375    5.250    9.000 
#    2.250    7.500    2.750    0.000    0.000    0.000 
#    0.000    0.000    0.000    0.000    0.000    0.000 
#
# Total GULP energy -89328.075028 kJ/mol
# GULP energy per Si atom -5583.004689 kJ/mol
# Density = 2.828940 g / cm^3
# Si number density = 28.353936 Si / 1000 Ang^3
#
#
#
# Elastic Constant Matrix: (Units=GPa)
#
#
# Indices 1 2 3 4 5 6 
#
# 1 66.3740 9.5688 4.2614 -13.4899 -7.3498 -8.9854
# 2 9.5688 104.5809 22.5820 -0.8732 8.8983 -20.3268
# 3 4.2614 22.5820 151.0454 4.5812 3.3125 -7.0087
# 4 -13.4899 -0.8732 4.5812 50.5942 -18.7034 3.2132
# 5 -7.3498 8.8983 3.3125 -18.7034 52.6390 -7.7624
# 6 -8.9854 -20.3268 -7.0087 3.2132 -7.7624 38.1194
#
#
#
# Elastic Compliance Matrix: (Units=1/GPa)
#
#
# Indices 1 2 3 4 5 6 
#
# 1 0.017782 -0.001159 -0.000463 0.006593 0.005653 0.004084
# 2 -0.001159 0.011077 -0.001324 -0.000881 -0.001504 0.005158
# 3 -0.000463 -0.001324 0.006894 -0.001008 -0.000571 0.000421
# 4 0.006593 -0.000881 -0.001008 0.025339 0.010262 0.000853
# 5 0.005653 -0.001504 -0.000571 0.010262 0.024391 0.004527
# 6 0.004084 0.005158 0.000421 0.000853 0.004527 0.030874
#
#
# Mechanical properties :
#
#
# Convention : Reuss Voigt Hill
#
# Bulk Modulus (GPa) = 33.48926 43.86941 38.67933
# Shear Modulus (GPa) = 37.82077 47.30973 42.56525
#
# Velocity S-wave (km/s) = 3.65620 4.08921 3.87875
# Velocity P-wave (km/s) = 5.44614 6.14827 5.80782
#
# Compressibility (1/GPa) = 0.02986032
#
# Stress axis : x y z
#
# Youngs Moduli (GPa) = 56.23726 90.27606 145.04927
#
# Poissons Ratio (x) = 0.10465 0.06713
# Poissons Ratio (y) = 0.06519 0.19209
# Poissons Ratio (z) = 0.02603 0.11955
#
# Static dielectric constant tensor:
#      x y z
#    x 2.292700 0.041110 -0.045550 
#    y 0.041110 2.334100 -0.054460 
#    z -0.045550 -0.054460 2.436520 
# 
# From -- ./inp_files/566856.got.cif
#   From: 2010.05.17/outbox.cif.g08.bks.cpg/sg2_284_cif.got.tgz:566856.got - 2010.06.03 11:33:40.
