data_PCOD9005781
_publ_section_title
;
Structure prediction by ZEFSAII (Michael W. Deem and Ramdas Pophale) SiO2 
 PCOD9005781
Probable space group: P -1
;
_chemical_formula_sum "Si O2"
_cell_formula_units_Z 16
_cell_length_a 19.664243
_cell_length_b 5.428149
_cell_length_c 7.900708
_cell_angle_alpha 63.221624
_cell_angle_beta 112.020490
_cell_angle_gamma 108.346614
_cell_volume 687.038686
_symmetry_space_group_name_H-M "P -1"
_symmetry_group_IT_number 2
_symmetry_cell_setting 'triclinic'
loop_
_space_group_symop_operation_xyz
x,y,z
-x,-y,-z
loop_
_atom_site_type_symbol
_atom_site_label
_atom_site_fract_x
_atom_site_fract_y
_atom_site_fract_z
Si Si1 0.169924 0.189625 0.092513
Si Si2 0.915664 0.051863 0.417297
Si Si3 0.541638 0.143637 0.757880
Si Si4 0.608961 0.838517 0.176534
Si Si5 0.163697 0.505261 0.627017
Si Si6 0.707814 0.021384 0.520643
Si Si7 0.912805 0.369289 0.968165
Si Si8 0.427169 0.720875 0.599102
O O1 0.129999 0.372251 0.127675
O O2 0.247385 0.153270 0.261810
O O3 0.120789 0.877174 0.116994
O O4 0.176172 0.353376 0.866077
O O5 0.893211 0.272858 0.462912
O O6 0.866911 0.742727 0.454917
O O7 0.901554 0.202859 0.184283
O O8 0.000000 0.000000 0.500000
O O9 0.471393 0.185455 0.794103
O O10 0.567421 0.365841 0.565550
O O11 0.505766 0.870347 0.699334
O O12 0.606163 0.065709 0.959927
O O13 0.603610 0.517542 0.219228
O O14 0.677426 0.896795 0.350211
O O15 0.237081 0.692882 0.563387
O O16 0.633545 0.079535 0.522702
O O17 0.000000 0.500000 0.000000
#
# Coordination Sequence:
#
# PCOD9005781 Si02
#       8
#     2   2   2   2   2   2   2   2
#     4  10  24  42  60  92 132 165 215 268 325 392
#     4  10  22  40  66  92 121 165 214 271 328 384
#     4   9  20  40  62  94 126 162 212 280 306 382
#     4  10  21  38  63  93 125 167 218 257 330 382
#     4  10  24  42  60  92 132 165 215 268 325 392
#     4  11  26  38  62  92 126 178 212 262 336 396
#     4  10  22  40  66  92 121 165 214 271 328 384
#     4  10  21  38  63  93 125 167 218 257 330 382
#
# _framework density 23.288354999999999
#
# number of rings (size 3 to 8) (size 9 to 14) (size 15 to 20)
#    0.000    2.000    0.000    1.500    7.000    2.000 
#    2.250    2.500    0.000    0.000    0.000    0.000 
#    0.000    0.000    0.000    0.000    0.000    0.000 
#
# Total GULP energy -89280.398328 kJ/mol
# GULP energy per Si atom -5580.024896 kJ/mol
# Density = 2.323535 g / cm^3
# Si number density = 23.288355 Si / 1000 Ang^3
#
#
#
# Elastic Constant Matrix: (Units=GPa)
#
#
# Indices 1 2 3 4 5 6 
#
# 1 61.9635 15.0398 20.8078 -6.9525 10.5908 -4.7275
# 2 15.0398 98.1719 32.2670 -15.2721 12.0464 -1.2203
# 3 20.8078 32.2670 131.2244 0.4613 13.8243 -16.7067
# 4 -6.9525 -15.2721 0.4613 19.9396 0.6617 5.5383
# 5 10.5908 12.0464 13.8243 0.6617 40.1182 -1.0949
# 6 -4.7275 -1.2203 -16.7067 5.5383 -1.0949 31.8037
#
#
#
# Elastic Compliance Matrix: (Units=1/GPa)
#
#
# Indices 1 2 3 4 5 6 
#
# 1 0.018457 -0.000626 -0.002338 0.006059 -0.003971 0.000300
# 2 -0.000626 0.013458 -0.003367 0.011211 -0.002993 -0.003401
# 3 -0.002338 -0.003367 0.009686 -0.005081 -0.001477 0.005445
# 4 0.006059 0.011211 -0.005081 0.064666 -0.004630 -0.012759
# 5 -0.003971 -0.002993 -0.001477 -0.004630 0.027466 0.000271
# 6 0.000300 -0.003401 0.005445 -0.012759 0.000271 0.036449
#
#
# Mechanical properties :
#
#
# Convention : Reuss Voigt Hill
#
# Bulk Modulus (GPa) = 34.55441 47.50989 41.03215
# Shear Modulus (GPa) = 25.97563 33.25530 29.61546
#
# Velocity S-wave (km/s) = 3.34337 3.78296 3.56994
# Velocity P-wave (km/s) = 5.45656 6.28698 5.88643
#
# Compressibility (1/GPa) = 0.02893987
#
# Stress axis : x y z
#
# Youngs Moduli (GPa) = 54.18070 74.30630 103.24333
#
# Poissons Ratio (x) = 0.04650 0.24134
# Poissons Ratio (y) = 0.03390 0.34762
# Poissons Ratio (z) = 0.12665 0.25019
#
# Static dielectric constant tensor:
#      x y z
#    x 1.923480 -0.289950 -0.211750 
#    y -0.289950 2.914510 0.647320 
#    z -0.211750 0.647320 2.360890 
# 
# From -- ./inp_files/44860.got.cif
#   From: 2010.05.17/outbox.cif.g08.bks.cpg/sg2_23_cif.got.tgz:44860.got - 2010.06.03 11:33:40.
