data_PCOD9005698
_publ_section_title
;
Structure prediction by ZEFSAII (Michael W. Deem and Ramdas Pophale) SiO2 
 PCOD9005698
Probable space group: P -1
;
_chemical_formula_sum "Si O2"
_cell_formula_units_Z 16
_cell_length_a 12.095893
_cell_length_b 8.406075
_cell_length_c 15.095927
_cell_angle_alpha 142.920721
_cell_angle_beta 56.410824
_cell_angle_gamma 108.396132
_cell_volume 746.350056
_symmetry_space_group_name_H-M "P -1"
_symmetry_group_IT_number 2
_symmetry_cell_setting 'triclinic'
loop_
_space_group_symop_operation_xyz
x,y,z
-x,-y,-z
loop_
_atom_site_type_symbol
_atom_site_label
_atom_site_fract_x
_atom_site_fract_y
_atom_site_fract_z
Si Si1 0.553281 0.138030 0.744665
Si Si2 0.335278 0.689199 0.068246
Si Si3 0.561702 0.235887 0.119401
Si Si4 0.618759 0.151888 0.535437
Si Si5 0.072525 0.735493 0.792735
Si Si6 0.088711 0.055219 0.770381
Si Si7 0.380243 0.752899 0.697261
Si Si8 0.943142 0.436312 0.853668
O O1 0.633602 0.087306 0.779216
O O2 0.651782 0.068814 0.586421
O O3 0.428019 0.997015 0.737779
O O4 0.475983 0.453436 0.905269
O O5 0.207372 0.590442 0.116425
O O6 0.320031 0.749856 0.997732
O O7 0.448681 0.525763 0.301605
O O8 0.617264 0.189581 0.173360
O O9 0.500000 0.000000 0.000000
O O10 0.500000 0.000000 0.500000
O O11 0.752348 0.055469 0.374661
O O12 0.234816 0.702587 0.715548
O O13 0.023769 0.494710 0.756678
O O14 0.039219 0.821880 0.743464
O O15 0.000000 0.000000 0.000000
O O16 0.013098 0.175510 0.766910
O O17 0.072090 0.306905 0.958475
O O18 0.500000 0.500000 0.500000
#
# Coordination Sequence:
#
# PCOD9005698 Si02
#       8
#     2   2   2   2   2   2   2   2
#     4  10  21  38  63  90 126 163 209 267 330 396
#     4  10  21  41  61  90 126 171 215 257 328 404
#     4  11  23  40  64  97 134 171 216 275 343 406
#     4  11  22  39  65  95 130 168 216 284 340 388
#     4  10  22  39  59  95 129 166 220 273 334 397
#     4  10  21  39  59  95 127 166 220 275 331 391
#     4  12  24  38  65  99 127 165 217 287 334 388
#     4  10  22  37  66  91 126 176 220 271 326 410
#
# _framework density 21.437660999999999
#
# number of rings (size 3 to 8) (size 9 to 14) (size 15 to 20)
#    0.000    1.500    1.250    5.250    8.750    0.000 
#    0.000    0.625    0.000    1.500    0.000    0.000 
#    0.000    0.000    0.000    0.000    0.000    0.000 
#
# Total GULP energy -89266.366733 kJ/mol
# GULP energy per Si atom -5579.147921 kJ/mol
# Density = 2.138887 g / cm^3
# Si number density = 21.437661 Si / 1000 Ang^3
#
#
#
# Elastic Constant Matrix: (Units=GPa)
#
#
# Indices 1 2 3 4 5 6 
#
# 1 39.4061 15.4243 13.0928 -10.2027 1.8242 -10.3424
# 2 15.4243 121.5303 32.6170 -37.9882 5.7625 -19.8399
# 3 13.0928 32.6170 63.6235 -14.1280 -5.6190 -7.2934
# 4 -10.2027 -37.9882 -14.1280 43.2431 1.1855 4.5341
# 5 1.8242 5.7625 -5.6190 1.1855 27.4591 -6.1103
# 6 -10.3424 -19.8399 -7.2934 4.5341 -6.1103 30.5972
#
#
#
# Elastic Compliance Matrix: (Units=1/GPa)
#
#
# Indices 1 2 3 4 5 6 
#
# 1 0.030314 0.000416 -0.004449 0.005220 -0.001365 0.008410
# 2 0.000416 0.013598 -0.004410 0.010071 -0.002921 0.005831
# 3 -0.004449 -0.004410 0.019806 0.001263 0.005502 0.001269
# 4 0.005220 0.010071 0.001263 0.033377 -0.002962 0.003058
# 5 -0.001365 -0.002921 0.005502 -0.002962 0.040019 0.007387
# 6 0.008410 0.005831 0.001269 0.003058 0.007387 0.040631
#
#
# Mechanical properties :
#
#
# Convention : Reuss Voigt Hill
#
# Bulk Modulus (GPa) = 21.35298 38.53645 29.94471
# Shear Modulus (GPa) = 23.78235 31.15494 27.46865
#
# Velocity S-wave (km/s) = 3.33434 3.81633 3.58345
# Velocity P-wave (km/s) = 4.98055 6.11835 5.57853
#
# Compressibility (1/GPa) = 0.04683188
#
# Stress axis : x y z
#
# Youngs Moduli (GPa) = 32.98805 73.54239 50.49090
#
# Poissons Ratio (x) = -0.03058 0.22463
# Poissons Ratio (y) = -0.01372 0.22265
# Poissons Ratio (z) = 0.14676 0.32429
#
# Static dielectric constant tensor:
#      x y z
#    x 1.789860 -0.072460 0.040100 
#    y -0.072460 1.847010 -0.008590 
#    z 0.040100 -0.008590 1.777750 
# 
# From -- ./inp_files/274566.got.cif
#   From: 2010.05.17/outbox.cif.g08.bks.cpg/sg2_138_cif.got.tgz:274566.got - 2010.06.03 11:33:40.
