data_PCOD9005471
_publ_section_title
;
Structure prediction by ZEFSAII (Michael W. Deem and Ramdas Pophale) SiO2 
 PCOD9005471
Probable space group: P -1
;
_chemical_formula_sum "Si O2"
_cell_formula_units_Z 16
_cell_length_a 23.189442
_cell_length_b 8.857406
_cell_length_c 8.002590
_cell_angle_alpha 46.732326
_cell_angle_beta 138.777007
_cell_angle_gamma 136.818267
_cell_volume 706.239606
_symmetry_space_group_name_H-M "P -1"
_symmetry_group_IT_number 2
_symmetry_cell_setting 'triclinic'
loop_
_space_group_symop_operation_xyz
x,y,z
-x,-y,-z
loop_
_atom_site_type_symbol
_atom_site_label
_atom_site_fract_x
_atom_site_fract_y
_atom_site_fract_z
Si Si1 0.708975 0.083514 0.103300
Si Si2 0.397873 0.885091 0.468867
Si Si3 0.040870 0.322179 0.161962
Si Si4 0.084866 0.202440 0.679371
Si Si5 0.611119 0.545367 0.344568
Si Si6 0.073787 0.637760 0.699899
Si Si7 0.571148 0.655818 0.681762
Si Si8 0.287552 0.495217 0.058825
O O1 0.824378 0.177887 0.290315
O O2 0.649261 0.812224 0.191919
O O3 0.685333 0.134840 0.826344
O O4 0.681306 0.230354 0.067592
O O5 0.378994 0.621119 0.649148
O O6 0.500000 0.000000 0.500000
O O7 0.403735 0.071591 0.478517
O O8 0.111480 0.287276 0.479501
O O9 0.086932 0.450438 0.990945
O O10 0.950649 0.065428 0.147013
O O11 0.000000 0.500000 0.000000
O O12 0.985230 0.231532 0.450526
O O13 0.172495 0.362870 0.868911
O O14 0.497817 0.435229 0.237847
O O15 0.675139 0.544780 0.648377
O O16 0.000000 0.500000 0.500000
O O17 0.500000 0.500000 0.500000
O O18 0.662924 0.602571 0.896202
#
# Coordination Sequence:
#
# PCOD9005471 Si02
#       8
#     2   2   2   2   2   2   2   2
#     4  11  23  40  61  94 127 168 218 261 324 387
#     4   9  20  40  62  87 125 161 209 264 316 383
#     4   9  22  40  59  86 126 162 207 269 324 379
#     4  10  21  40  63  89 122 166 214 268 324 376
#     4   9  21  39  62  91 127 164 208 266 322 385
#     4  11  23  40  62  91 129 170 218 264 318 384
#     4   9  19  39  63  90 124 165 205 262 327 385
#     4  10  21  38  62  90 123 161 213 267 317 384
#
# _framework density 22.655199
#
# number of rings (size 3 to 8) (size 9 to 14) (size 15 to 20)
#    0.000    2.250    1.250    0.750    1.750    8.000 
#    0.000    5.000    0.000    0.000    0.000    0.000 
#    0.000    0.000    0.000    0.000    0.000    0.000 
#
# Total GULP energy -89145.942140 kJ/mol
# GULP energy per Si atom -5571.621384 kJ/mol
# Density = 2.260363 g / cm^3
# Si number density = 22.655199 Si / 1000 Ang^3
#
#
#
# Elastic Constant Matrix: (Units=GPa)
#
#
# Indices 1 2 3 4 5 6 
#
# 1 65.4209 31.5796 22.1175 -19.6195 18.1228 -21.8216
# 2 31.5796 152.7550 45.7021 -36.1955 19.0961 -37.1086
# 3 22.1175 45.7021 84.4858 -19.1726 12.5088 -5.1672
# 4 -19.6195 -36.1955 -19.1726 55.7723 0.4408 10.8551
# 5 18.1228 19.0961 12.5088 0.4408 30.1529 -2.7633
# 6 -21.8216 -37.1086 -5.1672 10.8551 -2.7633 34.9194
#
#
#
# Elastic Compliance Matrix: (Units=1/GPa)
#
#
# Indices 1 2 3 4 5 6 
#
# 1 0.026739 0.003073 -0.003847 0.007080 -0.015057 0.016013
# 2 0.003073 0.012293 -0.004540 0.005182 -0.006709 0.012170
# 3 -0.003847 -0.004540 0.015739 0.002244 -0.001901 -0.005748
# 4 0.007080 0.005182 0.002244 0.024225 -0.008635 0.002050
# 5 -0.015057 -0.006709 -0.001901 -0.008635 0.046419 -0.010463
# 6 0.016013 0.012170 -0.005748 0.002050 -0.010463 0.049262
#
#
# Mechanical properties :
#
#
# Convention : Reuss Voigt Hill
#
# Bulk Modulus (GPa) = 22.65427 55.71781 39.18604
# Shear Modulus (GPa) = 24.99783 37.71974 31.35879
#
# Velocity S-wave (km/s) = 3.32536 4.08480 3.72449
# Velocity P-wave (km/s) = 4.97647 6.84797 5.98582
#
# Compressibility (1/GPa) = 0.04414179
#
# Stress axis : x y z
#
# Youngs Moduli (GPa) = 37.39923 81.34940 63.53751
#
# Poissons Ratio (x) = -0.25001 0.24442
# Poissons Ratio (y) = -0.11494 0.28849
# Poissons Ratio (z) = 0.14387 0.36937
#
# Static dielectric constant tensor:
#      x y z
#    x 2.128900 0.032320 0.051890 
#    y 0.032320 1.868940 0.011450 
#    z 0.051890 0.011450 1.938040 
# 
# From -- ./inp_files/351999.got.cif
#   From: 2010.05.17/outbox.cif.g08.bks.cpg/sg2_176_cif.got.tgz:351999.got - 2010.06.03 11:33:40.
