data_PCOD9005859
_publ_section_title
;
Structure prediction by ZEFSAII (Michael W. Deem and Ramdas Pophale) SiO2 
 PCOD9005859
Probable space group: P -1
;
_chemical_formula_sum "Si O2"
_cell_formula_units_Z 16
_cell_length_a 8.594450
_cell_length_b 7.000430
_cell_length_c 18.624782
_cell_angle_alpha 102.249279
_cell_angle_beta 131.825702
_cell_angle_gamma 107.193728
_cell_volume 652.666151
_symmetry_space_group_name_H-M "P -1"
_symmetry_group_IT_number 2
_symmetry_cell_setting 'triclinic'
loop_
_space_group_symop_operation_xyz
x,y,z
-x,-y,-z
loop_
_atom_site_type_symbol
_atom_site_label
_atom_site_fract_x
_atom_site_fract_y
_atom_site_fract_z
Si Si1 0.494139 0.777093 0.898706
Si Si2 0.002525 0.051711 0.319341
Si Si3 0.284435 0.722069 0.203679
Si Si4 0.524455 0.250812 0.948186
Si Si5 0.535991 0.918229 0.581322
Si Si6 0.895541 0.686281 0.983302
Si Si7 0.945439 0.458708 0.372265
Si Si8 0.188193 0.224340 0.626185
O O1 0.737395 0.798878 0.939637
O O2 0.224363 0.621988 0.759819
O O3 0.573951 0.046940 0.949137
O O4 0.440735 0.662703 0.952498
O O5 0.283117 0.170880 0.380784
O O6 0.965634 0.235402 0.364908
O O7 0.777720 0.904116 0.179682
O O8 0.952851 0.855666 0.346643
O O9 0.110167 0.435859 0.103139
O O10 0.559924 0.767350 0.284260
O O11 0.316987 0.852812 0.299580
O O12 0.172622 0.820364 0.120536
O O13 0.699922 0.457637 0.959820
O O14 0.242089 0.696249 0.494421
O O15 0.500000 0.000000 0.500000
O O16 0.783289 0.535379 0.372111
O O17 0.000000 0.000000 0.500000
#
# Coordination Sequence:
#
# PCOD9005859 Si02
#       8
#     2   2   2   2   2   2   2   2
#     4  10  21  38  63  97 123 162 213 253 309 373
#     4  11  23  42  66  91 123 165 212 257 316 366
#     4  11  24  40  65  95 126 167 210 254 324 369
#     4  10  21  38  65  92 126 163 208 261 305 371
#     4  12  24  42  65  93 128 165 210 269 311 372
#     4  11  22  40  65  88 130 167 202 260 313 376
#     4  11  23  39  67  91 125 163 210 258 309 377
#     4  12  22  45  64  89 128 163 207 260 309 381
#
# _framework density 24.514828999999999
#
# number of rings (size 3 to 8) (size 9 to 14) (size 15 to 20)
#    0.000    1.000    5.000    1.500    1.750    0.500 
#    0.000    3.750    2.750    0.000    0.000    0.000 
#    0.000    0.000    0.000    0.000    0.000    0.000 
#
# Total GULP energy -89236.445032 kJ/mol
# GULP energy per Si atom -5577.277814 kJ/mol
# Density = 2.445903 g / cm^3
# Si number density = 24.514829 Si / 1000 Ang^3
#
#
#
# Elastic Constant Matrix: (Units=GPa)
#
#
# Indices 1 2 3 4 5 6 
#
# 1 54.3636 40.9116 56.1268 -7.7196 8.1134 -23.3600
# 2 40.9116 107.2577 28.9091 -1.7007 3.6973 -41.1506
# 3 56.1268 28.9091 171.6772 -6.0080 4.0493 -14.6715
# 4 -7.7196 -1.7007 -6.0080 33.6013 -20.3132 2.9547
# 5 8.1134 3.6973 4.0493 -20.3132 54.7409 -6.3778
# 6 -23.3600 -41.1506 -14.6715 2.9547 -6.3778 42.5684
#
#
#
# Elastic Compliance Matrix: (Units=1/GPa)
#
#
# Indices 1 2 3 4 5 6 
#
# 1 0.041914 -0.009113 -0.011110 0.005317 -0.001667 0.009743
# 2 -0.009113 0.017125 0.001059 -0.001522 0.000969 0.012170
# 3 -0.011110 0.001059 0.009096 -0.000380 0.000548 -0.001829
# 4 0.005317 -0.001522 -0.000380 0.039228 0.013980 0.000687
# 5 -0.001667 0.000969 0.000548 0.013980 0.023926 0.002825
# 6 0.009743 0.012170 -0.001829 0.000687 0.002825 0.040348
#
#
# Mechanical properties :
#
#
# Convention : Reuss Voigt Hill
#
# Bulk Modulus (GPa) = 33.54802 65.02149 49.28475
# Shear Modulus (GPa) = 22.73749 40.00552 31.37151
#
# Velocity S-wave (km/s) = 3.04879 4.04405 3.58116
# Velocity P-wave (km/s) = 5.10960 6.95605 6.10306
#
# Compressibility (1/GPa) = 0.02980802
#
# Stress axis : x y z
#
# Youngs Moduli (GPa) = 23.85846 58.39274 109.93505
#
# Poissons Ratio (x) = 0.53212 1.22142
# Poissons Ratio (y) = 0.21742 -0.11647
# Poissons Ratio (z) = 0.26508 -0.06186
#
# Static dielectric constant tensor:
#      x y z
#    x 2.019100 -0.016920 0.022780 
#    y -0.016920 1.976020 -0.015310 
#    z 0.022780 -0.015310 1.931050 
# 
# From -- ./inp_files/588083.got.cif
#   From: 2010.05.17/outbox.cif.g08.bks.cpg/sg2_295_cif.got.tgz:588083.got - 2010.06.03 11:33:40.
