data_PCOD9005920
_publ_section_title
;
Structure prediction by ZEFSAII (Michael W. Deem and Ramdas Pophale) SiO2 
 PCOD9005920
Probable space group: P -1
;
_chemical_formula_sum "Si O2"
_cell_formula_units_Z 14
_cell_length_a 5.119738
_cell_length_b 12.978332
_cell_length_c 10.857700
_cell_angle_alpha 79.317642
_cell_angle_beta 115.036113
_cell_angle_gamma 104.543983
_cell_volume 630.136111
_symmetry_space_group_name_H-M "P -1"
_symmetry_group_IT_number 2
_symmetry_cell_setting 'triclinic'
loop_
_space_group_symop_operation_xyz
x,y,z
-x,-y,-z
loop_
_atom_site_type_symbol
_atom_site_label
_atom_site_fract_x
_atom_site_fract_y
_atom_site_fract_z
Si Si1 0.280249 0.818060 0.958590
Si Si2 0.183198 0.370407 0.566974
Si Si3 0.898207 0.865981 0.375187
Si Si4 0.399216 0.952443 0.623542
Si Si5 0.537685 0.401531 0.382973
Si Si6 0.873955 0.964645 0.120446
Si Si7 0.632066 0.760492 0.835877
O O1 0.385633 0.742687 0.895769
O O2 0.958641 0.767047 0.956506
O O3 0.207086 0.927862 0.865085
O O4 0.577516 0.873141 0.075105
O O5 0.243552 0.256742 0.644653
O O6 0.295576 0.388838 0.444679
O O7 0.356290 0.472755 0.652318
O O8 0.834759 0.368078 0.502462
O O9 0.057975 0.912781 0.268961
O O10 0.098860 0.871937 0.536407
O O11 0.688211 0.948523 0.344300
O O12 0.590426 0.875261 0.743895
O O13 0.500000 0.000000 0.500000
O O14 0.424869 0.326749 0.262616
O O15 0.000000 0.000000 0.000000
#
# Coordination Sequence:
#
# PCOD9005920 Si02
#       7
#     2   2   2   2   2   2   2
#     4  11  24  38  62  84 121 164 213 246 301 355
#     4  10  21  40  59  93 121 166 197 252 306 382
#     4  11  23  39  59  91 130 158 206 251 314 370
#     4  11  23  33  58  93 128 159 185 258 323 382
#     4  10  21  38  64  87 128 157 205 243 317 374
#     4  11  23  43  61  87 124 175 213 253 293 370
#     4  12  21  39  59  92 121 160 199 255 307 374
#
# _framework density 22.217423
#
# number of rings (size 3 to 8) (size 9 to 14) (size 15 to 20)
#    0.000    1.143    4.286    2.571    2.000    0.000 
#    0.000    0.000    0.000    1.714    0.000    0.000 
#    0.000    0.000    0.000    0.000    0.000    0.000 
#
# Total GULP energy -78042.872235 kJ/mol
# GULP energy per Si atom -5574.490874 kJ/mol
# Density = 2.216685 g / cm^3
# Si number density = 22.217423 Si / 1000 Ang^3
#
#
#
# Elastic Constant Matrix: (Units=GPa)
#
#
# Indices 1 2 3 4 5 6 
#
# 1 104.2771 7.9664 25.1149 9.7360 5.2124 -7.8471
# 2 7.9664 129.8524 13.6239 11.6590 -8.3504 -16.4353
# 3 25.1149 13.6239 53.1346 2.1745 11.3500 -1.4720
# 4 9.7360 11.6590 2.1745 26.8698 1.6481 -6.4204
# 5 5.2124 -8.3504 11.3500 1.6481 28.6783 8.7629
# 6 -7.8471 -16.4353 -1.4720 -6.4204 8.7629 20.8966
#
#
#
# Elastic Compliance Matrix: (Units=1/GPa)
#
#
# Indices 1 2 3 4 5 6 
#
# 1 0.011386 0.000527 -0.005101 -0.002983 -0.000882 0.003784
# 2 0.000527 0.009020 -0.002759 -0.002732 0.002142 0.005360
# 3 -0.005101 -0.002759 0.024136 0.002375 -0.010390 0.002702
# 4 -0.002983 -0.002732 0.002375 0.042953 -0.007738 0.013340
# 5 -0.000882 0.002142 -0.010390 -0.007738 0.046735 -0.021354
# 6 0.003784 0.005360 0.002702 0.013340 -0.021354 0.066735
#
#
# Mechanical properties :
#
#
# Convention : Reuss Voigt Hill
#
# Bulk Modulus (GPa) = 33.47375 42.29717 37.88546
# Shear Modulus (GPa) = 22.16419 31.32621 26.74520
#
# Velocity S-wave (km/s) = 3.16191 3.75905 3.47334
# Velocity P-wave (km/s) = 5.33192 6.15790 5.75974
#
# Compressibility (1/GPa) = 0.02987416
#
# Stress axis : x y z
#
# Youngs Moduli (GPa) = 87.83049 110.86963 41.43206
#
# Poissons Ratio (x) = -0.05840 0.21136
# Poissons Ratio (y) = -0.04627 0.11430
# Poissons Ratio (z) = 0.44806 0.30587
#
# Static dielectric constant tensor:
#      x y z
#    x 1.926540 0.074420 0.014970 
#    y 0.074420 1.822890 0.053910 
#    z 0.014970 0.053910 1.883760 
# 
# From -- ./inp_files/364355.got.cif
#   From: 2010.05.17/outbox.cif.g08.bks.cpg/sg2_183_cif.got.tgz:364355.got - 2010.06.03 11:33:40.
