data_PCOD9005135
_publ_section_title
;
Structure prediction by ZEFSAII (Michael W. Deem and Ramdas Pophale) SiO2 
 PCOD9005135
Probable space group: P -1
;
_chemical_formula_sum "Si O2"
_cell_formula_units_Z 12
_cell_length_a 14.056789
_cell_length_b 11.363113
_cell_length_c 13.589449
_cell_angle_alpha 31.759634
_cell_angle_beta 148.836708
_cell_angle_gamma 146.599669
_cell_volume 543.444873
_symmetry_space_group_name_H-M "P -1"
_symmetry_group_IT_number 2
_symmetry_cell_setting 'triclinic'
loop_
_space_group_symop_operation_xyz
x,y,z
-x,-y,-z
loop_
_atom_site_type_symbol
_atom_site_label
_atom_site_fract_x
_atom_site_fract_y
_atom_site_fract_z
Si Si1 0.990818 0.435574 0.924326
Si Si2 0.656659 0.619635 0.466504
Si Si3 0.082918 0.069386 0.866925
Si Si4 0.448506 0.377943 0.856313
Si Si5 0.351141 0.900954 0.845692
Si Si6 0.689273 0.927265 0.734334
O O1 0.802376 0.481317 0.686780
O O2 0.183278 0.637269 0.902397
O O3 0.000000 0.500000 0.000000
O O4 0.975666 0.167097 0.084999
O O5 0.500000 0.500000 0.500000
O O6 0.574030 0.601178 0.295896
O O7 0.746713 0.900516 0.383937
O O8 0.236013 0.298052 0.779783
O O9 0.207935 0.029243 0.098421
O O10 0.874629 0.067699 0.724966
O O11 0.603462 0.635601 0.848573
O O12 0.520954 0.152167 0.090607
O O13 0.500000 0.000000 0.000000
O O14 0.500000 0.000000 0.500000
#
# Coordination Sequence:
#
# PCOD9005135 Si02
#       6
#     2   2   2   2   2   2
#     4  12  22  41  66  97 140 176 220 283 341 409
#     4  11  23  39  64 100 137 182 228 271 340 416
#     4  11  25  45  72 102 138 181 231 284 345 410
#     4  11  22  46  67  99 138 177 229 285 342 404
#     4  10  21  38  60  93 131 174 217 269 333 402
#     4  11  25  47  73  99 137 183 233 287 345 406
#
# _framework density 22.081357000000001
#
# number of rings (size 3 to 8) (size 9 to 14) (size 15 to 20)
#    0.000    1.000    1.667    7.000    0.000    0.667 
#    3.000    0.000    0.000    0.000    0.000    0.000 
#    0.000    0.000    0.000    0.000    0.000    0.000 
#
# Total GULP energy -67001.871071 kJ/mol
# GULP energy per Si atom -5583.489256 kJ/mol
# Density = 2.203110 g / cm^3
# Si number density = 22.081357 Si / 1000 Ang^3
#
#
#
# Elastic Constant Matrix: (Units=GPa)
#
#
# Indices 1 2 3 4 5 6 
#
# 1 122.3292 32.6512 16.8091 14.6690 7.1740 17.9575
# 2 32.6512 77.0321 -18.5808 1.6227 -1.3784 9.7932
# 3 16.8091 -18.5808 51.2839 17.8891 15.9715 1.0190
# 4 14.6690 1.6227 17.8891 27.8365 4.9592 7.9807
# 5 7.1740 -1.3784 15.9715 4.9592 31.8066 3.1764
# 6 17.9575 9.7932 1.0190 7.9807 3.1764 54.0756
#
#
#
# Elastic Compliance Matrix: (Units=1/GPa)
#
#
# Indices 1 2 3 4 5 6 
#
# 1 0.010836 -0.005482 -0.005057 -0.001539 0.000328 -0.002303
# 2 -0.005482 0.018027 0.010646 -0.004299 -0.002572 -0.000859
# 3 -0.005057 0.010646 0.036017 -0.019444 -0.013727 0.002749
# 4 -0.001539 -0.004299 -0.019444 0.050732 0.002612 -0.005985
# 5 0.000328 -0.002572 -0.013727 0.002612 0.037940 -0.001999
# 6 -0.002303 -0.000859 0.002749 -0.005985 -0.001999 0.020362
#
#
# Mechanical properties :
#
#
# Convention : Reuss Voigt Hill
#
# Bulk Modulus (GPa) = 15.36266 34.71159 25.03713
# Shear Modulus (GPa) = 25.58880 37.39478 31.49179
#
# Velocity S-wave (km/s) = 3.40787 4.11968 3.78056
# Velocity P-wave (km/s) = 4.73890 6.19540 5.51544
#
# Compressibility (1/GPa) = 0.06509288
#
# Stress axis : x y z
#
# Youngs Moduli (GPa) = 92.28405 55.47283 27.76464
#
# Poissons Ratio (x) = 0.30410 0.14042
# Poissons Ratio (y) = 0.50590 -0.29558
# Poissons Ratio (z) = 0.46672 -0.59055
#
# Static dielectric constant tensor:
#      x y z
#    x 1.662880 0.074570 0.318900 
#    y 0.074570 1.783850 -0.076220 
#    z 0.318900 -0.076220 1.538060 
# 
# From -- ./inp_files/531563.got.cif
#   From: 2010.05.17/outbox.cif.g08.bks.cpg/sg2_266_cif.got.tgz:531563.got - 2010.06.03 11:33:40.
