data_PCOD9005241
_publ_section_title
;
Structure prediction by ZEFSAII (Michael W. Deem and Ramdas Pophale) SiO2 
 PCOD9005241
Probable space group: P -1
;
_chemical_formula_sum "Si O2"
_cell_formula_units_Z 16
_cell_length_a 15.653346
_cell_length_b 7.417206
_cell_length_c 8.949008
_cell_angle_alpha 52.633376
_cell_angle_beta 91.174720
_cell_angle_gamma 109.159077
_cell_volume 757.622821
_symmetry_space_group_name_H-M "P -1"
_symmetry_group_IT_number 2
_symmetry_cell_setting 'triclinic'
loop_
_space_group_symop_operation_xyz
x,y,z
-x,-y,-z
loop_
_atom_site_type_symbol
_atom_site_label
_atom_site_fract_x
_atom_site_fract_y
_atom_site_fract_z
Si Si1 0.733863 0.516400 0.856453
Si Si2 0.242587 0.148931 0.571818
Si Si3 0.868506 0.333554 0.073083
Si Si4 0.118691 0.411570 0.540827
Si Si5 0.992248 0.415945 0.787978
Si Si6 0.414337 0.541723 0.549536
Si Si7 0.687677 0.168490 0.740462
Si Si8 0.598739 0.577631 0.046351
O O1 0.737503 0.756428 0.644027
O O2 0.702927 0.300683 0.837951
O O3 0.660975 0.469536 0.008496
O O4 0.833801 0.541319 0.909468
O O5 0.154167 0.208269 0.586342
O O6 0.324680 0.317531 0.595364
O O7 0.220544 0.871399 0.750144
O O8 0.943797 0.411782 0.167123
O O9 0.905770 0.240254 0.974427
O O10 0.060484 0.336589 0.729448
O O11 0.212791 0.669067 0.419253
O O12 0.051404 0.451317 0.395242
O O13 0.500000 0.500000 0.500000
O O14 0.393972 0.775203 0.373644
O O15 0.417962 0.525308 0.735023
O O16 0.655692 0.876305 0.900566
O O17 0.500000 0.500000 0.000000
#
# Coordination Sequence:
#
# PCOD9005241 Si02
#       8
#     2   2   2   2   2   2   2   2
#     4  10  23  43  62  95 133 159 217 258 311 381
#     4  10  22  40  64  87 127 170 204 257 330 367
#     4  11  22  38  61  93 125 165 205 272 311 358
#     4   9  20  42  59  89 126 168 208 258 314 376
#     4  10  21  38  61  88 128 161 216 261 308 378
#     4  10  23  43  67  96 128 165 212 254 312 388
#     4  10  23  45  66  89 138 169 198 271 317 360
#     4  12  26  41  70 101 120 169 217 250 317 387
#
# _framework density 21.118689
#
# number of rings (size 3 to 8) (size 9 to 14) (size 15 to 20)
#    0.000    2.000    2.500    2.250    5.250    4.500 
#    0.000    0.000    0.000    0.000    0.000    0.000 
#    0.000    0.000    0.000    0.000    0.000    0.000 
#
# Total GULP energy -89228.475580 kJ/mol
# GULP energy per Si atom -5576.779724 kJ/mol
# Density = 2.107062 g / cm^3
# Si number density = 21.118689 Si / 1000 Ang^3
#
#
#
# Elastic Constant Matrix: (Units=GPa)
#
#
# Indices 1 2 3 4 5 6 
#
# 1 118.8282 14.0246 36.6847 35.2476 -1.9648 -12.2509
# 2 14.0246 29.5381 33.8688 8.4585 2.6125 0.2882
# 3 36.6847 33.8688 90.2438 33.6394 -5.3450 -1.9635
# 4 35.2476 8.4585 33.6394 29.5365 -8.3135 -4.6200
# 5 -1.9648 2.6125 -5.3450 -8.3135 33.5615 12.9885
# 6 -12.2509 0.2882 -1.9635 -4.6200 12.9885 18.4329
#
#
#
# Elastic Compliance Matrix: (Units=1/GPa)
#
#
# Indices 1 2 3 4 5 6 
#
# 1 0.015052 -0.003868 0.002736 -0.020440 -0.007521 0.010533
# 2 -0.003868 0.065863 -0.030642 0.019231 -0.006432 0.002488
# 3 0.002736 -0.030642 0.033863 -0.033288 0.000875 -0.003055
# 4 -0.020440 0.019231 -0.033288 0.094707 0.017908 -0.006313
# 5 -0.007521 -0.006432 0.000875 0.017908 0.047510 -0.033794
# 6 0.010533 0.002488 -0.003055 -0.006313 -0.033794 0.083117
#
#
# Mechanical properties :
#
#
# Convention : Reuss Voigt Hill
#
# Bulk Modulus (GPa) = 19.51977 45.30735 32.41356
# Shear Modulus (GPa) = 11.88395 26.57499 19.22947
#
# Velocity S-wave (km/s) = 2.37475 3.55119 3.02079
# Velocity P-wave (km/s) = 4.09661 6.18990 5.24867
#
# Compressibility (1/GPa) = 0.05123011
#
# Stress axis : x y z
#
# Youngs Moduli (GPa) = 66.43616 15.18305 29.53103
#
# Poissons Ratio (x) = 0.05873 -0.08080
# Poissons Ratio (y) = 0.25698 0.90488
# Poissons Ratio (z) = -0.18177 0.46523
#
# Static dielectric constant tensor:
#      x y z
#    x 2.233470 0.081630 -0.022000 
#    y 0.081630 1.769970 -0.027640 
#    z -0.022000 -0.027640 1.781940 
# 
# From -- ./inp_files/297506.got.cif
#   From: 2010.05.17/outbox.cif.g08.bks.cpg/sg2_149_cif.got.tgz:297506.got - 2010.06.03 11:33:40.
