data_PCOD9005180
_publ_section_title
;
Structure prediction by ZEFSAII (Michael W. Deem and Ramdas Pophale) SiO2 
 PCOD9005180
Probable space group: P -1
;
_chemical_formula_sum "Si O2"
_cell_formula_units_Z 16
_cell_length_a 6.478512
_cell_length_b 5.266499
_cell_length_c 20.964128
_cell_angle_alpha 99.405618
_cell_angle_beta 89.504271
_cell_angle_gamma 73.365650
_cell_volume 674.965894
_symmetry_space_group_name_H-M "P -1"
_symmetry_group_IT_number 2
_symmetry_cell_setting 'triclinic'
loop_
_space_group_symop_operation_xyz
x,y,z
-x,-y,-z
loop_
_atom_site_type_symbol
_atom_site_label
_atom_site_fract_x
_atom_site_fract_y
_atom_site_fract_z
Si Si1 0.130905 0.063377 0.655248
Si Si2 0.504490 0.776876 0.543846
Si Si3 0.560953 0.135577 0.066797
Si Si4 0.254559 0.956916 0.143690
Si Si5 0.985360 0.655148 0.074618
Si Si6 0.463380 0.898206 0.755989
Si Si7 0.155491 0.336916 0.350275
Si Si8 0.200209 0.648062 0.841879
O O1 0.297785 0.902307 0.594584
O O2 0.278072 0.068488 0.716724
O O3 0.971775 0.885212 0.663510
O O4 0.002966 0.362826 0.645357
O O5 0.500000 0.500000 0.500000
O O6 0.716501 0.710780 0.585080
O O7 0.500000 0.000000 0.500000
O O8 0.351994 0.151876 0.109509
O O9 0.785195 0.919348 0.077596
O O10 0.652350 0.381380 0.093212
O O11 0.500000 0.000000 0.000000
O O12 0.205391 0.736612 0.087997
O O13 0.432047 0.901201 0.196548
O O14 0.015568 0.119845 0.172177
O O15 0.928198 0.551818 0.139155
O O16 0.000000 0.500000 0.000000
O O17 0.659562 0.716948 0.706226
O O18 0.366761 0.704541 0.792093
#
# Coordination Sequence:
#
# PCOD9005180 Si02
#       8
#     2   2   2   2   2   2   2   2
#     4  11  25  48  73 110 150 205 254 304 368 429
#     4  11  24  43  76 119 159 200 252 302 359 435
#     4  10  21  38  61  85 125 161 208 273 352 444
#     4  10  22  43  60  92 125 169 224 294 362 438
#     4  11  23  39  66  96 127 169 224 294 379 461
#     4  10  24  48  67  96 139 190 249 305 368 445
#     4  11  25  48  74 106 153 203 249 313 364 423
#     4  10  22  43  60  94 123 169 228 289 361 446
#
# _framework density 23.704903000000002
#
# number of rings (size 3 to 8) (size 9 to 14) (size 15 to 20)
#    0.000    1.500    0.000    3.750    0.000   12.000 
#   29.250    0.000    0.000    0.000    0.000    0.000 
#    0.000    0.000    0.000    0.000    0.000    0.000 
#
# Total GULP energy -89148.676001 kJ/mol
# GULP energy per Si atom -5571.792250 kJ/mol
# Density = 2.365095 g / cm^3
# Si number density = 23.704903 Si / 1000 Ang^3
#
#
#
# Elastic Constant Matrix: (Units=GPa)
#
#
# Indices 1 2 3 4 5 6 
#
# 1 144.3657 48.0561 45.2160 -5.3165 23.0800 -5.2121
# 2 48.0561 102.4675 21.8034 -8.3807 22.2644 -3.5429
# 3 45.2160 21.8034 97.5847 -0.9306 20.9374 -4.6404
# 4 -5.3165 -8.3807 -0.9306 24.6261 7.7273 4.5273
# 5 23.0800 22.2644 20.9374 7.7273 51.9559 -2.1200
# 6 -5.2121 -3.5429 -4.6404 4.5273 -2.1200 38.7196
#
#
#
# Elastic Compliance Matrix: (Units=1/GPa)
#
#
# Indices 1 2 3 4 5 6 
#
# 1 0.009328 -0.003219 -0.003224 0.001248 -0.001637 0.000339
# 2 -0.003219 0.012769 -0.000315 0.005138 -0.004686 -0.000160
# 3 -0.003224 -0.000315 0.012624 0.000657 -0.003587 0.000777
# 4 0.001248 0.005138 0.000657 0.046829 -0.010202 -0.005317
# 5 -0.001637 -0.004686 -0.003587 -0.010202 0.025005 0.001483
# 6 0.000339 -0.000160 0.000777 -0.005317 0.001483 0.026654
#
#
# Mechanical properties :
#
#
# Convention : Reuss Voigt Hill
#
# Bulk Modulus (GPa) = 47.15661 63.84097 55.49879
# Shear Modulus (GPa) = 32.51125 38.34981 35.43053
#
# Velocity S-wave (km/s) = 3.70739 4.02655 3.87026
# Velocity P-wave (km/s) = 6.18569 6.97191 6.59053
#
# Compressibility (1/GPa) = 0.02120593
#
# Stress axis : x y z
#
# Youngs Moduli (GPa) = 107.20364 78.31591 79.21310
#
# Poissons Ratio (x) = 0.25213 0.25535
# Poissons Ratio (y) = 0.34513 0.02491
# Poissons Ratio (z) = 0.34559 0.02463
#
# Static dielectric constant tensor:
#      x y z
#    x 1.671980 -0.657720 -0.500160 
#    y -0.657720 -0.234840 -1.809640 
#    z -0.500160 -1.809640 0.426860 
# 
# From -- ./inp_files/114793.got.cif
#   From: 2010.05.17/outbox.cif.g08.bks.cpg/sg2_58_cif.got.tgz:114793.got - 2010.06.03 11:33:40.
