data_PCOD9005948
_publ_section_title
;
Structure prediction by ZEFSAII (Michael W. Deem and Ramdas Pophale) SiO2 
 PCOD9005948
Probable space group: P -1
;
_chemical_formula_sum "Si O2"
_cell_formula_units_Z 16
_cell_length_a 5.429015
_cell_length_b 12.909066
_cell_length_c 24.391541
_cell_angle_alpha 151.287859
_cell_angle_beta 122.290591
_cell_angle_gamma 69.423905
_cell_volume 664.754775
_symmetry_space_group_name_H-M "P -1"
_symmetry_group_IT_number 2
_symmetry_cell_setting 'triclinic'
loop_
_space_group_symop_operation_xyz
x,y,z
-x,-y,-z
loop_
_atom_site_type_symbol
_atom_site_label
_atom_site_fract_x
_atom_site_fract_y
_atom_site_fract_z
Si Si1 0.725318 0.063180 0.849406
Si Si2 0.735447 0.840352 0.858843
Si Si3 0.937240 0.048777 0.326918
Si Si4 0.929363 0.125724 0.631049
Si Si5 0.874989 0.419471 0.282697
Si Si6 0.612963 0.760624 0.344167
Si Si7 0.841918 0.662783 0.617079
Si Si8 0.864826 0.543529 0.061184
O O1 0.635670 0.966054 0.854038
O O2 0.425490 0.013337 0.752537
O O3 0.897740 0.901366 0.766422
O O4 0.898070 0.326020 0.997573
O O5 0.451492 0.757921 0.827189
O O6 0.879715 0.659057 0.761644
O O7 0.000000 0.000000 0.000000
O O8 0.066299 0.254553 0.395698
O O9 0.003091 0.811828 0.209472
O O10 0.056191 0.060389 0.408564
O O11 0.742746 0.288047 0.708022
O O12 0.273219 0.240620 0.705113
O O13 0.748013 0.011446 0.502222
O O14 0.780069 0.610441 0.327318
O O15 0.995982 0.466561 0.381517
O O16 0.500000 0.500000 0.500000
O O17 0.500000 0.500000 0.000000
O O18 0.000000 0.500000 0.000000
#
# Coordination Sequence:
#
# PCOD9005948 Si02
#       8
#     2   2   2   2   2   2   2   2
#     4  10  23  42  63  99 144 169 237 287 347 418
#     4  11  24  44  69  98 134 185 227 289 352 414
#     4  11  23  42  67 100 138 178 237 284 361 415
#     4  10  24  40  69  93 132 179 228 290 339 409
#     4  11  24  45  69  98 140 180 234 287 342 430
#     4  10  23  44  62  95 134 178 231 281 341 403
#     4  11  25  40  68 103 142 190 224 286 353 422
#     4  10  21  38  64  89 128 176 210 286 340 394
#
# _framework density 24.069026999999998
#
# number of rings (size 3 to 8) (size 9 to 14) (size 15 to 20)
#    0.000    1.500    2.500    1.125    3.500    6.500 
#    0.000    1.250    0.000    0.000    0.000    0.000 
#    0.000    0.000    0.000    0.000    0.000    0.000 
#
# Total GULP energy -89217.802893 kJ/mol
# GULP energy per Si atom -5576.112681 kJ/mol
# Density = 2.401424 g / cm^3
# Si number density = 24.069027 Si / 1000 Ang^3
#
#
#
# Elastic Constant Matrix: (Units=GPa)
#
#
# Indices 1 2 3 4 5 6 
#
# 1 118.9956 29.6214 14.8906 9.5130 -6.5926 4.1839
# 2 29.6214 133.5900 15.3387 20.4281 -6.5321 -0.9677
# 3 14.8906 15.3387 53.7525 7.1317 0.3703 -0.9912
# 4 9.5130 20.4281 7.1317 45.4207 -6.4283 3.6256
# 5 -6.5926 -6.5321 0.3703 -6.4283 35.4963 4.6381
# 6 4.1839 -0.9677 -0.9912 3.6256 4.6381 37.1087
#
#
#
# Elastic Compliance Matrix: (Units=1/GPa)
#
#
# Indices 1 2 3 4 5 6 
#
# 1 0.009247 -0.001667 -0.002046 -0.000552 0.001498 -0.001274
# 2 -0.001667 0.008560 -0.001547 -0.003218 0.000620 0.000607
# 3 -0.002046 -0.001547 0.019948 -0.002301 -0.001437 0.001128
# 4 -0.000552 -0.003218 -0.002301 0.024779 0.004213 -0.003031
# 5 0.001498 0.000620 -0.001437 0.004213 0.029909 -0.004341
# 6 -0.001274 0.000607 0.001128 -0.003031 -0.004341 0.027976
#
#
# Mechanical properties :
#
#
# Convention : Reuss Voigt Hill
#
# Bulk Modulus (GPa) = 36.71884 47.33773 42.02828
# Shear Modulus (GPa) = 35.70990 40.03764 37.87377
#
# Velocity S-wave (km/s) = 3.85599 4.08297 3.97110
# Velocity P-wave (km/s) = 5.92568 6.47593 6.20690
#
# Compressibility (1/GPa) = 0.02723398
#
# Stress axis : x y z
#
# Youngs Moduli (GPa) = 108.14755 116.82715 50.13007
#
# Poissons Ratio (x) = 0.19474 0.10259
# Poissons Ratio (y) = 0.18027 0.07754
# Poissons Ratio (z) = 0.22132 0.18072
#
# Static dielectric constant tensor:
#      x y z
#    x 1.937420 -0.070530 0.018560 
#    y -0.070530 1.880370 -0.009510 
#    z 0.018560 -0.009510 2.083480 
# 
# From -- ./inp_files/604523.got.cif
#   From: 2010.05.17/outbox.cif.g08.bks.cpg/sg2_303_cif.got.tgz:604523.got - 2010.06.03 11:33:40.
