data_PCOD9005004
_publ_section_title
;
Structure prediction by ZEFSAII (Michael W. Deem and Ramdas Pophale) SiO2 
 PCOD9005004
Probable space group: P -1
;
_chemical_formula_sum "Si O2"
_cell_formula_units_Z 14
_cell_length_a 6.389440
_cell_length_b 15.304743
_cell_length_c 15.178475
_cell_angle_alpha 152.847354
_cell_angle_beta 90.723766
_cell_angle_gamma 79.113181
_cell_volume 623.896093
_symmetry_space_group_name_H-M "P -1"
_symmetry_group_IT_number 2
_symmetry_cell_setting 'triclinic'
loop_
_space_group_symop_operation_xyz
x,y,z
-x,-y,-z
loop_
_atom_site_type_symbol
_atom_site_label
_atom_site_fract_x
_atom_site_fract_y
_atom_site_fract_z
Si Si1 0.897837 0.062523 0.426580
Si Si2 0.929011 0.366766 0.273380
Si Si3 0.650234 0.761777 0.714034
Si Si4 0.199243 0.534691 0.293489
Si Si5 0.370453 0.864232 0.336637
Si Si6 0.176024 0.366012 0.954234
Si Si7 0.619076 0.177430 0.053415
O O1 0.822528 0.229006 0.497481
O O2 0.757822 0.177390 0.616626
O O3 0.851837 0.853176 0.227899
O O4 0.164938 0.991596 0.384884
O O5 0.703289 0.546765 0.472196
O O6 0.860595 0.195869 0.071886
O O7 0.113148 0.268416 0.262278
O O8 0.038876 0.486472 0.318838
O O9 0.467465 0.800944 0.825655
O O10 0.601467 0.962051 0.832496
O O11 0.448645 0.367991 0.167746
O O12 0.130553 0.484153 0.151822
O O13 0.569092 0.684728 0.125309
O O14 0.500000 0.000000 0.500000
O O15 0.000000 0.500000 0.000000
#
# Coordination Sequence:
#
# PCOD9005004 Si02
#       7
#     2   2   2   2   2   2   2
#     4  10  22  40  59  83 117 153 196 252 303 349
#     4  10  21  38  60  86 121 156 191 241 295 355
#     4   9  20  39  62  88 114 154 201 234 290 362
#     4  11  25  37  54  92 121 150 201 243 296 361
#     4   9  19  38  62  81 106 151 200 246 295 354
#     4  11  24  41  62  87 117 159 206 248 299 358
#     4  10  21  38  61  87 119 154 195 246 293 348
#
# _framework density 22.439634999999999
#
# number of rings (size 3 to 8) (size 9 to 14) (size 15 to 20)
#    0.000    2.000    0.000    3.429    0.000   10.286 
#    0.000    2.857    0.000    0.000    0.000    0.000 
#    0.000    0.000    0.000    0.000    0.000    0.000 
#
# Total GULP energy -78219.276948 kJ/mol
# GULP energy per Si atom -5587.091211 kJ/mol
# Density = 2.238856 g / cm^3
# Si number density = 22.439635 Si / 1000 Ang^3
#
#
#
# Elastic Constant Matrix: (Units=GPa)
#
#
# Indices 1 2 3 4 5 6 
#
# 1 75.7857 19.8975 11.8274 22.9736 -0.5894 -3.7759
# 2 19.8975 86.7691 13.2381 36.4969 11.7176 -2.6051
# 3 11.8274 13.2381 63.3458 21.2889 5.8388 6.9295
# 4 22.9736 36.4969 21.2889 43.6743 9.2481 5.1837
# 5 -0.5894 11.7176 5.8388 9.2481 39.8092 2.3803
# 6 -3.7759 -2.6051 6.9295 5.1837 2.3803 16.7062
#
#
#
# Elastic Compliance Matrix: (Units=1/GPa)
#
#
# Indices 1 2 3 4 5 6 
#
# 1 0.016593 0.000434 -0.000790 -0.009981 0.002138 0.006938
# 2 0.000434 0.019028 0.000998 -0.017121 -0.002259 0.008285
# 3 -0.000790 0.000998 0.019420 -0.009120 -0.000728 -0.005145
# 4 -0.009981 -0.017121 -0.009120 0.049718 -0.004367 -0.015947
# 5 0.002138 -0.002259 -0.000728 -0.004367 0.027061 -0.002068
# 6 0.006938 0.008285 -0.005145 -0.015947 -0.002068 0.070095
#
#
# Mechanical properties :
#
#
# Convention : Reuss Voigt Hill
#
# Bulk Modulus (GPa) = 17.75425 35.09184 26.42304
# Shear Modulus (GPa) = 22.78875 32.10046 27.44460
#
# Velocity S-wave (km/s) = 3.19024 3.78633 3.50099
# Velocity P-wave (km/s) = 4.63674 5.89808 5.30503
#
# Compressibility (1/GPa) = 0.05632456
#
# Stress axis : x y z
#
# Youngs Moduli (GPa) = 60.26771 52.55321 51.49272
#
# Poissons Ratio (x) = -0.02279 0.04069
# Poissons Ratio (y) = -0.02613 -0.05140
# Poissons Ratio (z) = 0.04762 -0.05246
#
# Static dielectric constant tensor:
#      x y z
#    x 0.436580 0.585390 1.228300 
#    y 0.585390 1.595480 -0.482220 
#    z 1.228300 -0.482220 0.770200 
# 
# From -- ./inp_files/97866.got.cif
#   From: 2010.05.17/outbox.cif.g08.bks.cpg/sg2_49_cif.got.tgz:97866.got - 2010.06.03 11:33:40.
