data_PCOD9005207
_publ_section_title
;
Structure prediction by ZEFSAII (Michael W. Deem and Ramdas Pophale) SiO2 
 PCOD9005207
Probable space group: P -1
;
_chemical_formula_sum "Si O2"
_cell_formula_units_Z 14
_cell_length_a 11.985309
_cell_length_b 5.666297
_cell_length_c 12.720490
_cell_angle_alpha 129.088031
_cell_angle_beta 81.515351
_cell_angle_gamma 117.725297
_cell_volume 580.022878
_symmetry_space_group_name_H-M "P -1"
_symmetry_group_IT_number 2
_symmetry_cell_setting 'triclinic'
loop_
_space_group_symop_operation_xyz
x,y,z
-x,-y,-z
loop_
_atom_site_type_symbol
_atom_site_label
_atom_site_fract_x
_atom_site_fract_y
_atom_site_fract_z
Si Si1 0.647107 0.355387 0.921135
Si Si2 0.115188 0.772073 0.136840
Si Si3 0.392561 0.601388 0.294055
Si Si4 0.629629 0.315647 0.451002
Si Si5 0.237421 0.106189 0.773776
Si Si6 0.403589 0.636791 0.759494
Si Si7 0.968849 0.764756 0.831699
O O1 0.749702 0.225712 0.904135
O O2 0.675949 0.467417 0.827544
O O3 0.499710 0.049823 0.865031
O O4 0.677926 0.687188 0.079393
O O5 0.081982 0.617031 0.216874
O O6 0.112867 0.122260 0.202554
O O7 0.000000 0.500000 0.000000
O O8 0.335464 0.494274 0.389271
O O9 0.500493 0.482851 0.237405
O O10 0.480207 0.020694 0.400729
O O11 0.630273 0.494563 0.391971
O O12 0.717178 0.136112 0.361155
O O13 0.270593 0.435702 0.785193
O O14 0.096824 0.883089 0.778214
O O15 0.000000 0.000000 0.000000
#
# Coordination Sequence:
#
# PCOD9005207 Si02
#       7
#     2   2   2   2   2   2   2
#     4  11  22  36  60  91 125 154 203 257 315 367
#     4  10  21  38  61  88 120 167 209 252 304 374
#     4   9  20  38  57  84 119 165 203 244 304 378
#     4   9  20  38  58  82 121 163 205 243 305 378
#     4  11  22  36  60  92 124 154 203 258 315 365
#     4  10  22  34  59  91 124 158 197 253 318 371
#     4  10  21  38  61  87 123 165 213 251 304 373
#
# _framework density 24.136977999999999
#
# number of rings (size 3 to 8) (size 9 to 14) (size 15 to 20)
#    0.000    2.000    2.857    0.857    4.000    7.429 
#    0.000    0.000    0.000    1.714    0.000    0.000 
#    0.000    0.000    0.000    0.000    0.000    0.000 
#
# Total GULP energy -78055.751874 kJ/mol
# GULP energy per Si atom -5575.410848 kJ/mol
# Density = 2.408204 g / cm^3
# Si number density = 24.136978 Si / 1000 Ang^3
#
#
#
# Elastic Constant Matrix: (Units=GPa)
#
#
# Indices 1 2 3 4 5 6 
#
# 1 97.9021 43.3213 15.2833 -21.9621 -1.7469 -21.3362
# 2 43.3213 149.5155 -4.3041 -39.7143 3.9397 2.6146
# 3 15.2833 -4.3041 64.6562 -32.3862 16.6787 0.4909
# 4 -21.9621 -39.7143 -32.3862 36.8654 -5.3792 1.0539
# 5 -1.7469 3.9397 16.6787 -5.3792 34.4859 -15.9373
# 6 -21.3362 2.6146 0.4909 1.0539 -15.9373 39.5856
#
#
#
# Elastic Compliance Matrix: (Units=1/GPa)
#
#
# Indices 1 2 3 4 5 6 
#
# 1 0.017801 -0.007955 -0.011855 -0.006810 0.013896 0.016043
# 2 -0.007955 0.021419 0.028285 0.041173 -0.016476 -0.013782
# 3 -0.011855 0.028285 0.070330 0.080479 -0.037475 -0.026360
# 4 -0.006810 0.041173 0.080479 0.133787 -0.034601 -0.024880
# 5 0.013896 -0.016476 -0.037475 -0.034601 0.060097 0.034159
# 6 0.016043 -0.013782 -0.026360 -0.024880 0.034159 0.049561
#
#
# Mechanical properties :
#
#
# Convention : Reuss Voigt Hill
#
# Bulk Modulus (GPa) = 7.90508 46.74164 27.32336
# Shear Modulus (GPa) = 13.22014 39.37226 26.29620
#
# Velocity S-wave (km/s) = 2.34287 4.04319 3.30427
# Velocity P-wave (km/s) = 3.25590 6.41902 5.08943
#
# Compressibility (1/GPa) = 0.12650099
#
# Stress axis : x y z
#
# Youngs Moduli (GPa) = 56.17545 46.68788 14.21864
#
# Poissons Ratio (x) = 0.37138 0.16856
# Poissons Ratio (y) = 0.44685 -0.40217
# Poissons Ratio (z) = 0.66594 -1.32055
#
# Static dielectric constant tensor:
#      x y z
#    x 1.977820 0.000340 0.005790 
#    y 0.000340 2.078780 0.028260 
#    z 0.005790 0.028260 1.922480 
# 
# From -- ./inp_files/70871.got.cif
#   From: 2010.05.17/outbox.cif.g08.bks.cpg/sg2_36_cif.got.tgz:70871.got - 2010.06.03 11:33:40.
