data_PCOD9005929
_publ_section_title
;
Structure prediction by ZEFSAII (Michael W. Deem and Ramdas Pophale) SiO2 
 PCOD9005929
Probable space group: P -1
;
_chemical_formula_sum "Si O2"
_cell_formula_units_Z 16
_cell_length_a 10.506030
_cell_length_b 13.533347
_cell_length_c 8.104280
_cell_angle_alpha 76.913489
_cell_angle_beta 110.178595
_cell_angle_gamma 51.761866
_cell_volume 681.685445
_symmetry_space_group_name_H-M "P -1"
_symmetry_group_IT_number 2
_symmetry_cell_setting 'triclinic'
loop_
_space_group_symop_operation_xyz
x,y,z
-x,-y,-z
loop_
_atom_site_type_symbol
_atom_site_label
_atom_site_fract_x
_atom_site_fract_y
_atom_site_fract_z
Si Si1 0.814077 0.741201 0.785345
Si Si2 0.343144 0.938334 0.903421
Si Si3 0.582287 0.434749 0.295693
Si Si4 0.467017 0.066115 0.715410
Si Si5 0.464914 0.266825 0.242336
Si Si6 0.090599 0.817631 0.229701
Si Si7 0.166142 0.997812 0.266429
Si Si8 0.168888 0.692527 0.879501
O O1 0.717881 0.796681 0.538798
O O2 0.760011 0.660732 0.864952
O O3 0.003394 0.878185 0.715486
O O4 0.038478 0.667562 0.890676
O O5 0.454035 0.797877 0.882581
O O6 0.376797 0.028837 0.802575
O O7 0.450159 0.889661 0.149796
O O8 0.097068 0.064098 0.766547
O O9 0.507391 0.359681 0.268235
O O10 0.730490 0.357072 0.551215
O O11 0.359013 0.617074 0.114958
O O12 0.719464 0.388344 0.216025
O O13 0.660281 0.903380 0.763506
O O14 0.616898 0.116591 0.493068
O O15 0.183310 0.877102 0.242075
O O16 0.961698 0.870357 0.986476
#
# Coordination Sequence:
#
# PCOD9005929 Si02
#       8
#     2   2   2   2   2   2   2   2
#     4  10  18  32  54  74 105 136 169 214 261 305
#     4  10  17  28  51  76 106 134 167 212 262 309
#     4  10  23  37  51  75 106 141 178 211 254 308
#     4   9  18  29  48  83 105 128 169 217 262 306
#     4  10  20  35  54  79 106 134 171 216 262 308
#     4  10  19  33  53  78 106 135 171 216 260 308
#     4  10  20  33  54  80 104 134 173 216 263 307
#     4  11  21  36  55  75 104 141 176 211 256 309
#
# _framework density 23.471236999999999
#
# number of rings (size 3 to 8) (size 9 to 14) (size 15 to 20)
#    0.000    2.000    0.000    6.000    0.000    3.000 
#    0.000    0.000    0.000    0.750    0.000    0.000 
#    0.000    0.000    0.000    0.000    0.000    0.000 
#
# Total GULP energy -89171.736726 kJ/mol
# GULP energy per Si atom -5573.233545 kJ/mol
# Density = 2.341782 g / cm^3
# Si number density = 23.471237 Si / 1000 Ang^3
#
#
#
# Elastic Constant Matrix: (Units=GPa)
#
#
# Indices 1 2 3 4 5 6 
#
# 1 106.9133 21.0486 11.3593 -4.4248 11.5865 -17.2247
# 2 21.0486 33.7535 13.4355 -2.2956 5.7601 -7.2816
# 3 11.3593 13.4355 120.2707 10.1843 13.6704 -13.1664
# 4 -4.4248 -2.2956 10.1843 33.3207 0.2806 7.1497
# 5 11.5865 5.7601 13.6704 0.2806 30.5263 -0.7066
# 6 -17.2247 -7.2816 -13.1664 7.1497 -0.7066 39.4446
#
#
#
# Elastic Compliance Matrix: (Units=1/GPa)
#
#
# Indices 1 2 3 4 5 6 
#
# 1 0.011475 -0.005869 0.000367 0.000186 -0.003322 0.003957
# 2 -0.005869 0.035705 -0.002966 0.002053 -0.003140 0.002610
# 3 0.000367 -0.002966 0.009756 -0.003856 -0.003832 0.003500
# 4 0.000186 0.002053 -0.003856 0.032799 0.000811 -0.006757
# 5 -0.003322 -0.003140 -0.003832 0.000811 0.036256 -0.002807
# 6 0.003957 0.002610 0.003500 -0.006757 -0.002807 0.029904
#
#
# Mechanical properties :
#
#
# Convention : Reuss Voigt Hill
#
# Bulk Modulus (GPa) = 24.99868 39.18049 32.08958
# Shear Modulus (GPa) = 26.85785 34.99792 30.92788
#
# Velocity S-wave (km/s) = 3.38640 3.86566 3.63394
# Velocity P-wave (km/s) = 5.09551 6.05423 5.59544
#
# Compressibility (1/GPa) = 0.04000212
#
# Stress axis : x y z
#
# Youngs Moduli (GPa) = 87.14588 28.00708 102.49593
#
# Poissons Ratio (x) = 0.16436 -0.03760
# Poissons Ratio (y) = 0.51142 0.30396
# Poissons Ratio (z) = -0.03196 0.08306
#
# Static dielectric constant tensor:
#      x y z
#    x 2.036470 -0.028080 -0.055530 
#    y -0.028080 1.935720 0.010080 
#    z -0.055530 0.010080 1.919760 
# 
# From -- ./inp_files/206985.got.cif
#   From: 2010.05.17/outbox.cif.g08.bks.cpg/sg2_104_cif.got.tgz:206985.got - 2010.06.03 11:33:40.
