data_PCOD9005127
_publ_section_title
;
Structure prediction by ZEFSAII (Michael W. Deem and Ramdas Pophale) SiO2 
 PCOD9005127
Probable space group: P -1
;
_chemical_formula_sum "Si O2"
_cell_formula_units_Z 16
_cell_length_a 5.181445
_cell_length_b 14.789665
_cell_length_c 11.426442
_cell_angle_alpha 67.272743
_cell_angle_beta 114.364313
_cell_angle_gamma 83.278975
_cell_volume 694.759245
_symmetry_space_group_name_H-M "P -1"
_symmetry_group_IT_number 2
_symmetry_cell_setting 'triclinic'
loop_
_space_group_symop_operation_xyz
x,y,z
-x,-y,-z
loop_
_atom_site_type_symbol
_atom_site_label
_atom_site_fract_x
_atom_site_fract_y
_atom_site_fract_z
Si Si1 0.675366 0.863375 0.353340
Si Si2 0.868627 0.397335 0.939157
Si Si3 0.328309 0.597964 0.341604
Si Si4 0.298124 0.764182 0.911893
Si Si5 0.480181 0.395121 0.168472
Si Si6 0.300270 0.934628 0.656695
Si Si7 0.608131 0.217778 0.450370
Si Si8 0.301398 0.271530 0.778637
O O1 0.572256 0.795376 0.463636
O O2 0.590027 0.833394 0.224966
O O3 0.035964 0.832072 0.439433
O O4 0.548919 0.983082 0.310504
O O5 0.849674 0.432242 0.784267
O O6 0.559508 0.483538 0.887066
O O7 0.894880 0.276707 0.012690
O O8 0.153273 0.400809 0.060457
O O9 0.500000 0.500000 0.500000
O O10 0.555422 0.649046 0.297551
O O11 0.058688 0.681178 0.318295
O O12 0.311951 0.682957 0.848484
O O13 0.218814 0.873830 0.780461
O O14 0.588042 0.746799 0.057395
O O15 0.544182 0.333664 0.333082
O O16 0.477795 0.847659 0.639439
O O17 0.000000 0.000000 0.500000
#
# Coordination Sequence:
#
# PCOD9005127 Si02
#       8
#     2   2   2   2   2   2   2   2
#     4  11  23  42  62  99 122 165 217 257 314 377
#     4  10  22  37  63  89 128 161 218 248 323 371
#     4  11  24  44  62  93 128 174 210 258 308 377
#     4  10  21  42  60  91 129 167 207 266 315 376
#     4  10  21  38  60  93 120 170 204 263 310 384
#     4   9  21  41  67  94 125 166 209 264 324 371
#     4  10  23  40  66  92 131 160 206 269 314 369
#     4  11  24  42  66  89 131 167 212 260 313 370
#
# _framework density 23.029561999999999
#
# number of rings (size 3 to 8) (size 9 to 14) (size 15 to 20)
#    0.000    1.750    1.250    1.875    8.750    0.500 
#    2.250    0.000    0.000    6.000    0.000    0.000 
#    0.000    0.000    0.000    0.000    0.000    0.000 
#
# Total GULP energy -89256.771106 kJ/mol
# GULP energy per Si atom -5578.548194 kJ/mol
# Density = 2.297715 g / cm^3
# Si number density = 23.029562 Si / 1000 Ang^3
#
#
#
# Elastic Constant Matrix: (Units=GPa)
#
#
# Indices 1 2 3 4 5 6 
#
# 1 69.5925 7.0455 17.3845 2.1330 -12.0486 0.4017
# 2 7.0455 54.1944 26.3041 -2.0064 -11.6661 -2.0586
# 3 17.3845 26.3041 125.2287 -17.7928 -20.1646 12.3008
# 4 2.1330 -2.0064 -17.7928 31.7229 5.3835 -8.7272
# 5 -12.0486 -11.6661 -20.1646 5.3835 28.5062 -0.6176
# 6 0.4017 -2.0586 12.3008 -8.7272 -0.6176 25.6880
#
#
#
# Elastic Compliance Matrix: (Units=1/GPa)
#
#
# Indices 1 2 3 4 5 6 
#
# 1 0.015943 -0.000101 -0.001609 -0.003134 0.006143 -0.000404
# 2 -0.000101 0.021887 -0.004052 -0.000986 0.006310 0.003513
# 3 -0.001609 -0.004052 0.010732 0.004033 0.004405 -0.003962
# 4 -0.003134 -0.000986 0.004033 0.037880 -0.005796 0.010769
# 5 0.006143 0.006310 0.004405 -0.005796 0.044413 -0.002601
# 6 -0.000404 0.003513 -0.003962 0.010769 -0.002601 0.044710
#
#
# Mechanical properties :
#
#
# Convention : Reuss Voigt Hill
#
# Bulk Modulus (GPa) = 26.99920 38.94264 32.97092
# Shear Modulus (GPa) = 25.07078 30.40218 27.73648
#
# Velocity S-wave (km/s) = 3.30303 3.63731 3.47419
# Velocity P-wave (km/s) = 5.12794 5.88104 5.51735
#
# Compressibility (1/GPa) = 0.03703813
#
# Stress axis : x y z
#
# Youngs Moduli (GPa) = 62.72226 45.68824 93.18341
#
# Poissons Ratio (x) = 0.00462 0.14989
# Poissons Ratio (y) = 0.00634 0.37762
# Poissons Ratio (z) = 0.10089 0.18515
#
# Static dielectric constant tensor:
#      x y z
#    x 1.938410 -0.038640 -0.043350 
#    y -0.038640 2.018560 0.033070 
#    z -0.043350 0.033070 1.848570 
# 
# From -- ./inp_files/76784.got.cif
#   From: 2010.05.17/outbox.cif.g08.bks.cpg/sg2_39_cif.got.tgz:76784.got - 2010.06.03 11:33:40.
