data_PCOD9005974
_publ_section_title
;
Structure prediction by ZEFSAII (Michael W. Deem and Ramdas Pophale) SiO2 
 PCOD9005974
Probable space group: P -1
;
_chemical_formula_sum "Si O2"
_cell_formula_units_Z 14
_cell_length_a 13.424605
_cell_length_b 13.003389
_cell_length_c 5.864750
_cell_angle_alpha 48.910846
_cell_angle_beta 56.410759
_cell_angle_gamma 59.686998
_cell_volume 626.325082
_symmetry_space_group_name_H-M "P -1"
_symmetry_group_IT_number 2
_symmetry_cell_setting 'triclinic'
loop_
_space_group_symop_operation_xyz
x,y,z
-x,-y,-z
loop_
_atom_site_type_symbol
_atom_site_label
_atom_site_fract_x
_atom_site_fract_y
_atom_site_fract_z
Si Si1 0.815938 0.418025 0.475656
Si Si2 0.944180 0.781293 0.412066
Si Si3 0.093916 0.952607 0.652321
Si Si4 0.681163 0.249741 0.199997
Si Si5 0.738322 0.690674 0.504631
Si Si6 0.477780 0.075868 0.668223
Si Si7 0.623023 0.508178 0.203208
O O1 0.786691 0.555954 0.475429
O O2 0.745876 0.463419 0.264377
O O3 0.960205 0.344914 0.400175
O O4 0.753503 0.294583 0.829491
O O5 0.849880 0.723087 0.461070
O O6 0.880076 0.905313 0.480917
O O7 0.022732 0.864850 0.034395
O O8 0.222594 0.844658 0.610073
O O9 0.000000 0.000000 0.500000
O O10 0.577091 0.170636 0.395287
O O11 0.625046 0.397229 0.165590
O O12 0.660828 0.829182 0.281618
O O13 0.638249 0.650614 0.862423
O O14 0.500000 0.000000 0.500000
O O15 0.500000 0.000000 0.000000
O O16 0.500000 0.500000 0.500000
#
# Coordination Sequence:
#
# PCOD9005974 Si02
#       7
#     2   2   2   2   2   2   2
#     4  10  22  41  68  95 129 174 221 284 344 409
#     4  10  22  40  63  96 132 166 223 276 340 417
#     4  10  21  38  64  90 128 175 214 270 341 407
#     4  10  23  42  63  95 129 173 228 277 339 408
#     4  11  25  42  65  98 132 172 226 283 345 406
#     4  12  29  45  69 101 140 185 232 289 349 412
#     4  11  23  40  69  92 131 177 226 281 340 406
#
# _framework density 22.352612000000001
#
# number of rings (size 3 to 8) (size 9 to 14) (size 15 to 20)
#    0.000    1.429    0.000    3.857    8.000    4.000 
#    0.000    0.000    0.000    0.000    0.000    0.000 
#    0.000    0.000    0.000    0.000    0.000    0.000 
#
# Total GULP energy -78156.224958 kJ/mol
# GULP energy per Si atom -5582.587497 kJ/mol
# Density = 2.230174 g / cm^3
# Si number density = 22.352612 Si / 1000 Ang^3
#
#
#
# Elastic Constant Matrix: (Units=GPa)
#
#
# Indices 1 2 3 4 5 6 
#
# 1 124.9873 23.3356 37.4220 -23.8502 0.5602 10.4181
# 2 23.3356 46.5342 29.1931 -18.1470 -13.3813 8.7890
# 3 37.4220 29.1931 65.6953 -13.8855 18.1856 4.3111
# 4 -23.8502 -18.1470 -13.8855 22.1531 -2.8125 -0.5090
# 5 0.5602 -13.3813 18.1856 -2.8125 43.4785 -13.6641
# 6 10.4181 8.7890 4.3111 -0.5090 -13.6641 51.2298
#
#
#
# Elastic Compliance Matrix: (Units=1/GPa)
#
#
# Indices 1 2 3 4 5 6 
#
# 1 0.011970 0.006457 -0.008343 0.013663 0.005847 -0.001145
# 2 0.006457 0.071112 -0.036471 0.047490 0.040380 0.000798
# 3 -0.008343 -0.036471 0.041370 -0.016920 -0.030739 -0.003895
# 4 0.013663 0.047490 -0.016920 0.091542 0.027002 -0.001390
# 5 0.005847 0.040380 -0.030739 0.027002 0.052722 0.008800
# 6 -0.001145 0.000798 -0.003895 -0.001390 0.008800 0.022277
#
#
# Mechanical properties :
#
#
# Convention : Reuss Voigt Hill
#
# Bulk Modulus (GPa) = 20.94827 46.34645 33.64736
# Shear Modulus (GPa) = 13.03375 33.19001 23.11188
#
# Velocity S-wave (km/s) = 2.41736 3.85754 3.21903
# Velocity P-wave (km/s) = 4.14531 6.37339 5.37604
#
# Compressibility (1/GPa) = 0.04773663
#
# Stress axis : x y z
#
# Youngs Moduli (GPa) = 83.54520 14.06229 24.17234
#
# Poissons Ratio (x) = -0.09080 0.20168
# Poissons Ratio (y) = -0.53948 0.88160
# Poissons Ratio (z) = 0.69704 0.51287
#
# Static dielectric constant tensor:
#      x y z
#    x 1.822200 -0.036660 0.018220 
#    y -0.036660 1.844400 0.026410 
#    z 0.018220 0.026410 1.948890 
# 
# From -- ./inp_files/37041.got.cif
#   From: 2010.05.17/outbox.cif.g08.bks.cpg/sg2_19_cif.got.tgz:37041.got - 2010.06.03 11:33:40.
