data_PCOD9005082
_publ_section_title
;
Structure prediction by ZEFSAII (Michael W. Deem and Ramdas Pophale) SiO2 
 PCOD9005082
Probable space group: P -1
;
_chemical_formula_sum "Si O2"
_cell_formula_units_Z 15
_cell_length_a 16.316021
_cell_length_b 8.263359
_cell_length_c 11.561804
_cell_angle_alpha 123.018138
_cell_angle_beta 32.190324
_cell_angle_gamma 105.930948
_cell_volume 632.608009
_symmetry_space_group_name_H-M "P -1"
_symmetry_group_IT_number 2
_symmetry_cell_setting 'triclinic'
loop_
_space_group_symop_operation_xyz
x,y,z
-x,-y,-z
loop_
_atom_site_type_symbol
_atom_site_label
_atom_site_fract_x
_atom_site_fract_y
_atom_site_fract_z
Si Si1 0.907293 0.840832 0.040798
Si Si2 0.259329 0.869680 0.268951
Si Si3 0.351097 0.843864 0.896416
Si Si4 0.000000 0.500000 0.000000
Si Si5 0.070410 0.639552 0.542078
Si Si6 0.606409 0.050193 0.643917
Si Si7 0.684525 0.410014 0.354671
Si Si8 0.613029 0.472453 0.723745
O O1 0.991618 0.642755 0.949714
O O2 0.718361 0.947865 0.358544
O O3 0.929818 0.766582 0.853536
O O4 0.000000 0.000000 0.000000
O O5 0.129938 0.781169 0.440926
O O6 0.271687 0.029236 0.416409
O O7 0.237193 0.920044 0.178526
O O8 0.452520 0.689653 0.973502
O O9 0.497402 0.604163 0.643736
O O10 0.274047 0.800860 0.853452
O O11 0.448722 0.993572 0.823358
O O12 0.815371 0.500836 0.190064
O O13 0.237366 0.514641 0.373180
O O14 0.000000 0.500000 0.500000
O O15 0.559941 0.299383 0.779760
O O16 0.687857 0.371996 0.472031
#
# Coordination Sequence:
#
# PCOD9005082 Si02
#       8
#     2   2   2   1   2   2   2   2
#     4  12  23  42  68  98 130 174 225 263 324 399
#     4  10  22  40  64  88 130 168 210 264 331 390
#     4  10  22  36  61  93 121 161 209 270 323 376
#     4  12  22  40  68  92 128 176 212 268 330 386
#     4  11  23  38  65  95 126 173 217 268 333 389
#     4  11  20  39  65  89 122 171 214 266 323 386
#     4  10  21  38  60  90 124 160 214 263 319 392
#     4  10  21  41  63  90 125 168 215 262 329 394
#
# _framework density 23.711366000000002
#
# number of rings (size 3 to 8) (size 9 to 14) (size 15 to 20)
#    0.000    1.333    5.333    2.000    1.867    1.600 
#    0.000    4.000    0.000    1.600    0.000    0.000 
#    0.000    0.000    0.000    0.000    0.000    0.000 
#
# Total GULP energy -83518.319872 kJ/mol
# GULP energy per Si atom -5567.887991 kJ/mol
# Density = 2.365740 g / cm^3
# Si number density = 23.711366 Si / 1000 Ang^3
#
#
#
# Elastic Constant Matrix: (Units=GPa)
#
#
# Indices 1 2 3 4 5 6 
#
# 1 96.8015 57.0748 51.6034 -5.0087 41.1154 15.7508
# 2 57.0748 110.1247 30.6536 -28.3447 37.2261 18.0647
# 3 51.6034 30.6536 123.0708 -26.5547 48.3921 12.6999
# 4 -5.0087 -28.3447 -26.5547 40.3200 -14.5377 4.5521
# 5 41.1154 37.2261 48.3921 -14.5377 46.9751 20.1752
# 6 15.7508 18.0647 12.6999 4.5521 20.1752 36.8366
#
#
#
# Elastic Compliance Matrix: (Units=1/GPa)
#
#
# Indices 1 2 3 4 5 6 
#
# 1 0.023538 -0.010705 -0.005602 -0.013728 -0.013187 0.006036
# 2 -0.010705 0.019438 0.005056 0.015017 -0.003820 -0.006462
# 3 -0.005602 0.005056 0.016336 0.008678 -0.013509 0.000610
# 4 -0.013728 0.015017 0.008678 0.045896 0.012737 -0.017134
# 5 -0.013187 -0.003820 -0.013509 0.012737 0.064288 -0.024614
# 6 0.006036 -0.006462 0.000610 -0.017134 -0.024614 0.043123
#
#
# Mechanical properties :
#
#
# Convention : Reuss Voigt Hill
#
# Bulk Modulus (GPa) = 27.16689 67.62896 47.39792
# Shear Modulus (GPa) = 20.21096 37.53737 28.87417
#
# Velocity S-wave (km/s) = 2.92271 3.98313 3.49339
# Velocity P-wave (km/s) = 4.78245 7.05248 6.02533
#
# Compressibility (1/GPa) = 0.03680951
#
# Stress axis : x y z
#
# Youngs Moduli (GPa) = 42.48522 51.44563 61.21306
#
# Poissons Ratio (x) = 0.55074 0.34294
# Poissons Ratio (y) = 0.45481 -0.30952
# Poissons Ratio (z) = 0.23802 -0.26013
#
# Static dielectric constant tensor:
#      x y z
#    x 1.959430 -0.055660 -0.025960 
#    y -0.055660 1.857520 0.063960 
#    z -0.025960 0.063960 1.925180 
# 
# From -- ./inp_files/266380.got.cif
#   From: 2010.05.17/outbox.cif.g08.bks.cpg/sg2_134_cif.got.tgz:266380.got - 2010.06.03 11:33:40.
