data_PCOD9005359
_publ_section_title
;
Structure prediction by ZEFSAII (Michael W. Deem and Ramdas Pophale) SiO2 
 PCOD9005359
Probable space group: P -1
;
_chemical_formula_sum "Si O2"
_cell_formula_units_Z 16
_cell_length_a 5.457964
_cell_length_b 8.435221
_cell_length_c 19.724085
_cell_angle_alpha 66.822944
_cell_angle_beta 107.111816
_cell_angle_gamma 124.640193
_cell_volume 683.822375
_symmetry_space_group_name_H-M "P -1"
_symmetry_group_IT_number 2
_symmetry_cell_setting 'triclinic'
loop_
_space_group_symop_operation_xyz
x,y,z
-x,-y,-z
loop_
_atom_site_type_symbol
_atom_site_label
_atom_site_fract_x
_atom_site_fract_y
_atom_site_fract_z
Si Si1 0.844720 0.714954 0.422944
Si Si2 0.532940 0.477435 0.793364
Si Si3 0.979908 0.489555 0.250185
Si Si4 0.752124 0.350456 0.953910
Si Si5 0.743157 0.012602 0.938879
Si Si6 0.113282 0.048599 0.283994
Si Si7 0.122817 0.475709 0.410938
Si Si8 0.443606 0.923560 0.787438
O O1 0.484594 0.618598 0.407837
O O2 0.922935 0.693195 0.510287
O O3 0.017256 0.935213 0.366800
O O4 0.957438 0.587090 0.410157
O O5 0.182747 0.385278 0.774546
O O6 0.610843 0.455738 0.880766
O O7 0.686672 0.394527 0.770278
O O8 0.684453 0.708387 0.741389
O O9 0.776012 0.313769 0.209393
O O10 0.987770 0.399444 0.338555
O O11 0.837951 0.241735 0.922102
O O12 0.540593 0.161779 0.015245
O O13 0.000000 0.500000 0.000000
O O14 0.648741 0.955677 0.863430
O O15 0.000000 0.000000 0.000000
O O16 0.323742 0.987066 0.271066
O O17 0.799593 0.008805 0.233340
#
# Coordination Sequence:
#
# PCOD9005359 Si02
#       8
#     2   2   2   2   2   2   2   2
#     4  10  21  38  62  94 137 174 223 277 337 408
#     4  10  23  40  65  93 129 168 226 281 336 404
#     4  10  21  40  62  93 130 175 223 277 334 408
#     4  11  26  47  71  98 137 186 234 295 356 424
#     4  11  28  46  70 100 137 186 233 292 360 422
#     4  10  21  41  64  93 129 177 216 281 334 403
#     4  10  21  38  61  95 133 180 221 275 340 406
#     4  10  23  42  66  90 134 167 225 279 336 407
#
# _framework density 23.397888999999999
#
# number of rings (size 3 to 8) (size 9 to 14) (size 15 to 20)
#    0.000    1.750    0.000    3.000    8.750    3.500 
#    0.000    5.000    0.000    0.000    0.000    0.000 
#    0.000    0.000    0.000    0.000    0.000    0.000 
#
# Total GULP energy -89304.466781 kJ/mol
# GULP energy per Si atom -5581.529174 kJ/mol
# Density = 2.334463 g / cm^3
# Si number density = 23.397889 Si / 1000 Ang^3
#
#
#
# Elastic Constant Matrix: (Units=GPa)
#
#
# Indices 1 2 3 4 5 6 
#
# 1 156.0457 9.9312 12.7324 5.2326 7.7798 9.6288
# 2 9.9312 101.0727 18.3417 -0.3668 5.6688 9.6035
# 3 12.7324 18.3417 127.8400 -1.9099 -0.4275 -11.6230
# 4 5.2326 -0.3668 -1.9099 42.6507 7.3884 -3.8283
# 5 7.7798 5.6688 -0.4275 7.3884 38.3916 -3.4327
# 6 9.6288 9.6035 -11.6230 -3.8283 -3.4327 13.6005
#
#
#
# Elastic Compliance Matrix: (Units=1/GPa)
#
#
# Indices 1 2 3 4 5 6 
#
# 1 0.007097 0.000371 -0.001455 -0.001261 -0.001925 -0.007370
# 2 0.000371 0.011631 -0.002792 -0.000648 -0.002748 -0.011737
# 3 -0.001455 -0.002792 0.009475 0.001367 0.001613 0.011890
# 4 -0.001261 -0.000648 0.001367 0.025071 -0.003686 0.008645
# 5 -0.001925 -0.002748 0.001613 -0.003686 0.028541 0.010848
# 6 -0.007370 -0.011737 0.011890 0.008645 0.010848 0.102365
#
#
# Mechanical properties :
#
#
# Convention : Reuss Voigt Hill
#
# Bulk Modulus (GPa) = 48.90125 51.88544 50.39335
# Shear Modulus (GPa) = 25.15747 41.85877 33.50812
#
# Velocity S-wave (km/s) = 3.28259 4.23424 3.78842
# Velocity P-wave (km/s) = 5.94242 6.79180 6.38126
#
# Compressibility (1/GPa) = 0.02044937
#
# Stress axis : x y z
#
# Youngs Moduli (GPa) = 140.91255 85.97688 105.54529
#
# Poissons Ratio (x) = -0.03186 0.15360
# Poissons Ratio (y) = -0.05221 0.29464
# Poissons Ratio (z) = 0.20507 0.24001
#
# Static dielectric constant tensor:
#      x y z
#    x 2.037600 -0.052820 -0.035390 
#    y -0.052820 1.870980 -0.051870 
#    z -0.035390 -0.051870 1.974810 
# 
# From -- ./inp_files/582362.got.cif
#   From: 2010.05.17/outbox.cif.g08.bks.cpg/sg2_292_cif.got.tgz:582362.got - 2010.06.03 11:33:40.
