data_PCOD9005565
_publ_section_title
;
Structure prediction by ZEFSAII (Michael W. Deem and Ramdas Pophale) SiO2 
 PCOD9005565
Probable space group: P -1
;
_chemical_formula_sum "Si O2"
_cell_formula_units_Z 16
_cell_length_a 23.065493
_cell_length_b 7.906801
_cell_length_c 22.293896
_cell_angle_alpha 145.922136
_cell_angle_beta 159.845586
_cell_angle_gamma 33.432415
_cell_volume 749.981361
_symmetry_space_group_name_H-M "P -1"
_symmetry_group_IT_number 2
_symmetry_cell_setting 'triclinic'
loop_
_space_group_symop_operation_xyz
x,y,z
-x,-y,-z
loop_
_atom_site_type_symbol
_atom_site_label
_atom_site_fract_x
_atom_site_fract_y
_atom_site_fract_z
Si Si1 0.222448 0.228713 0.377499
Si Si2 0.112334 0.824825 0.912687
Si Si3 0.238136 0.299139 0.095536
Si Si4 0.506151 0.749670 0.131423
Si Si5 0.611794 0.300848 0.346055
Si Si6 0.546438 0.639154 0.921697
Si Si7 0.868326 0.782713 0.849785
Si Si8 0.477523 0.372199 0.520613
O O1 0.218307 0.592286 0.475340
O O2 0.170463 0.153173 0.238446
O O3 0.086373 0.179200 0.279087
O O4 0.412725 0.975897 0.496813
O O5 0.244278 0.520727 0.922020
O O6 0.148018 0.116694 0.999757
O O7 0.165368 0.893152 0.051445
O O8 0.398024 0.409648 0.313418
O O9 0.328562 0.042640 0.056705
O O10 0.071163 0.581610 0.996212
O O11 0.532468 0.561268 0.165517
O O12 0.633966 0.954383 0.293413
O O13 0.500000 0.500000 0.000000
O O14 0.510224 0.357801 0.201509
O O15 0.523330 0.551590 0.386160
O O16 0.500000 0.000000 0.000000
O O17 0.727983 0.597419 0.680376
#
# Coordination Sequence:
#
# PCOD9005565 Si02
#       8
#     2   2   2   2   2   2   2   2
#     4  11  22  37  60  91 129 166 206 254 313 379
#     4  11  23  38  58  93 127 161 214 257 308 383
#     4  10  23  39  59  93 130 161 209 261 314 374
#     4  10  21  40  67  92 122 162 220 266 304 381
#     4  10  21  40  61  91 127 157 213 258 310 371
#     4  11  22  39  68  90 116 169 213 260 324 362
#     4  11  21  37  63  87 127 172 199 250 321 372
#     4  10  21  38  62  93 128 168 209 251 309 384
#
# _framework density 21.333863000000001
#
# number of rings (size 3 to 8) (size 9 to 14) (size 15 to 20)
#    0.000    1.500    2.500    3.750    3.500    0.500 
#    9.000    0.625    0.000    8.250    0.000    0.000 
#    0.000    0.000    0.000    0.000    0.000    0.000 
#
# Total GULP energy -89124.274019 kJ/mol
# GULP energy per Si atom -5570.267126 kJ/mol
# Density = 2.128531 g / cm^3
# Si number density = 21.333863 Si / 1000 Ang^3
#
#
#
# Elastic Constant Matrix: (Units=GPa)
#
#
# Indices 1 2 3 4 5 6 
#
# 1 84.3204 21.4470 24.3742 15.7691 26.7056 9.0917
# 2 21.4470 112.5784 46.1597 18.5979 13.4276 -2.7419
# 3 24.3742 46.1597 85.2798 18.8899 37.7257 0.1665
# 4 15.7691 18.5979 18.8899 27.3479 10.3453 -0.3785
# 5 26.7056 13.4276 37.7257 10.3453 40.9947 11.2877
# 6 9.0917 -2.7419 0.1665 -0.3785 11.2877 27.7466
#
#
#
# Elastic Compliance Matrix: (Units=1/GPa)
#
#
# Indices 1 2 3 4 5 6 
#
# 1 0.016105 -0.001809 0.002029 -0.005733 -0.009901 -0.001518
# 2 -0.001809 0.012389 -0.007591 -0.004124 0.005236 -0.000324
# 3 0.002029 -0.007591 0.027604 -0.005405 -0.025246 0.008616
# 4 -0.005733 -0.004124 -0.005405 0.047532 -0.002847 0.003310
# 5 -0.009901 0.005236 -0.025246 -0.002847 0.058575 -0.019955
# 6 -0.001518 -0.000324 0.008616 0.003310 -0.019955 0.044617
#
#
# Mechanical properties :
#
#
# Convention : Reuss Voigt Hill
#
# Bulk Modulus (GPa) = 24.18037 51.79339 37.98688
# Shear Modulus (GPa) = 21.24518 31.89769 26.57144
#
# Velocity S-wave (km/s) = 3.15912 3.87093 3.53300
# Velocity P-wave (km/s) = 4.96645 6.65651 5.87259
#
# Compressibility (1/GPa) = 0.04135585
#
# Stress axis : x y z
#
# Youngs Moduli (GPa) = 62.09305 80.71964 36.22719
#
# Poissons Ratio (x) = 0.14602 -0.07351
# Poissons Ratio (y) = 0.11233 0.27499
# Poissons Ratio (z) = -0.12599 0.61272
#
# Static dielectric constant tensor:
#      x y z
#    x 1.900780 0.034160 0.043990 
#    y 0.034160 1.748310 0.026450 
#    z 0.043990 0.026450 1.850320 
# 
# From -- ./inp_files/614050.got.cif
#   From: 2010.05.17/outbox.cif.g08.bks.cpg/sg2_308_cif.got.tgz:614050.got - 2010.06.03 11:33:40.
