data_PCOD9005829
_publ_section_title
;
Structure prediction by ZEFSAII (Michael W. Deem and Ramdas Pophale) SiO2 
 PCOD9005829
Probable space group: P -1
;
_chemical_formula_sum "Si O2"
_cell_formula_units_Z 16
_cell_length_a 9.318350
_cell_length_b 11.364284
_cell_length_c 9.029208
_cell_angle_alpha 129.393943
_cell_angle_beta 105.433540
_cell_angle_gamma 84.353311
_cell_volume 709.078852
_symmetry_space_group_name_H-M "P -1"
_symmetry_group_IT_number 2
_symmetry_cell_setting 'triclinic'
loop_
_space_group_symop_operation_xyz
x,y,z
-x,-y,-z
loop_
_atom_site_type_symbol
_atom_site_label
_atom_site_fract_x
_atom_site_fract_y
_atom_site_fract_z
Si Si1 0.397916 0.640286 0.099393
Si Si2 0.394595 0.801781 0.926276
Si Si3 0.946978 0.788912 0.202957
Si Si4 0.099187 0.478183 0.256440
Si Si5 0.711513 0.969234 0.115640
Si Si6 0.259375 0.793294 0.429540
Si Si7 0.189731 0.395217 0.713239
Si Si8 0.654135 0.529908 0.471163
O O1 0.390650 0.741142 0.322351
O O2 0.500000 0.500000 0.000000
O O3 0.417452 0.760675 0.069292
O O4 0.243345 0.537871 0.947855
O O5 0.287854 0.930372 0.953457
O O6 0.326213 0.643667 0.710502
O O7 0.564496 0.851093 0.960537
O O8 0.857425 0.743173 0.296197
O O9 0.117189 0.847724 0.341987
O O10 0.856195 0.897405 0.161048
O O11 0.945019 0.635661 0.981296
O O12 0.190551 0.632658 0.348565
O O13 0.214042 0.402054 0.332247
O O14 0.958314 0.544139 0.348842
O O15 0.682268 0.089332 0.334575
O O16 0.312453 0.381638 0.606569
O O17 0.500000 0.500000 0.500000
#
# Coordination Sequence:
#
# PCOD9005829 Si02
#       8
#     2   2   2   2   2   2   2   2
#     4  11  22  39  66  97 127 163 216 278 318 378
#     4  10  24  41  60  88 134 171 210 257 331 378
#     4  11  21  41  66  97 126 171 214 266 324 383
#     4  11  20  40  65  96 126 168 214 272 324 376
#     4  11  23  42  62  87 133 178 207 261 320 393
#     4  11  22  40  64  95 127 167 218 264 322 384
#     4  10  21  38  63  95 129 160 213 274 323 374
#     4  11  23  38  64  97 127 166 216 270 328 379
#
# _framework density 22.564488000000001
#
# number of rings (size 3 to 8) (size 9 to 14) (size 15 to 20)
#    0.000    1.250    3.750    3.000    3.500    0.500 
#    0.000    4.375    0.000    0.000    0.000    0.000 
#    0.000    0.000    0.000    0.000    0.000    0.000 
#
# Total GULP energy -89138.918485 kJ/mol
# GULP energy per Si atom -5571.182405 kJ/mol
# Density = 2.251313 g / cm^3
# Si number density = 22.564488 Si / 1000 Ang^3
#
#
#
# Elastic Constant Matrix: (Units=GPa)
#
#
# Indices 1 2 3 4 5 6 
#
# 1 88.0232 61.6672 9.1647 -24.8894 -13.9221 -8.6927
# 2 61.6672 102.9740 12.0051 -7.2147 -10.1386 -21.3290
# 3 9.1647 12.0051 64.9070 -12.6916 1.2674 2.2948
# 4 -24.8894 -7.2147 -12.6916 24.3092 -1.5281 7.6607
# 5 -13.9221 -10.1386 1.2674 -1.5281 34.1948 -6.2930
# 6 -8.6927 -21.3290 2.2948 7.6607 -6.2930 28.5567
#
#
#
# Elastic Compliance Matrix: (Units=1/GPa)
#
#
# Indices 1 2 3 4 5 6 
#
# 1 0.038622 -0.023710 0.007583 0.042040 0.007305 -0.016230
# 2 -0.023710 0.027553 -0.007791 -0.026855 0.001568 0.021538
# 3 0.007583 -0.007791 0.019895 0.019068 -0.001031 -0.010452
# 4 0.042040 -0.026855 0.019068 0.097101 0.006644 -0.033378
# 5 0.007305 0.001568 -0.001031 0.006644 0.034739 0.009351
# 6 -0.016230 0.021538 -0.010452 -0.033378 0.009351 0.058019
#
#
# Mechanical properties :
#
#
# Convention : Reuss Voigt Hill
#
# Bulk Modulus (GPa) = 26.15539 46.84201 36.49870
# Shear Modulus (GPa) = 14.85842 28.94995 21.90418
#
# Velocity S-wave (km/s) = 2.56888 3.58577 3.11905
# Velocity P-wave (km/s) = 4.51835 6.16018 5.40200
#
# Compressibility (1/GPa) = 0.03823304
#
# Stress axis : x y z
#
# Youngs Moduli (GPa) = 25.89221 36.29426 50.26353
#
# Poissons Ratio (x) = 0.86054 -0.38117
# Poissons Ratio (y) = 0.61391 0.39163
# Poissons Ratio (z) = -0.19635 0.28279
#
# Static dielectric constant tensor:
#      x y z
#    x 2.061420 -0.330300 0.181570 
#    y -0.330300 2.910450 -0.622460 
#    z 0.181570 -0.622460 2.142350 
# 
# From -- ./inp_files/190934.got.cif
#   From: 2010.05.17/outbox.cif.g08.bks.cpg/sg2_96_cif.got.tgz:190934.got - 2010.06.03 11:33:40.
