data_PCOD9005198
_publ_section_title
;
Structure prediction by ZEFSAII (Michael W. Deem and Ramdas Pophale) SiO2 
 PCOD9005198
Probable space group: P -1
;
_chemical_formula_sum "Si O2"
_cell_formula_units_Z 16
_cell_length_a 9.624563
_cell_length_b 11.643341
_cell_length_c 11.685526
_cell_angle_alpha 36.311504
_cell_angle_beta 92.526358
_cell_angle_gamma 96.436430
_cell_volume 768.183731
_symmetry_space_group_name_H-M "P -1"
_symmetry_group_IT_number 2
_symmetry_cell_setting 'triclinic'
loop_
_space_group_symop_operation_xyz
x,y,z
-x,-y,-z
loop_
_atom_site_type_symbol
_atom_site_label
_atom_site_fract_x
_atom_site_fract_y
_atom_site_fract_z
Si Si1 0.553548 0.412582 0.890508
Si Si2 0.817327 0.509179 0.961878
Si Si3 0.373564 0.957577 0.938780
Si Si4 0.486589 0.340809 0.525296
Si Si5 0.193637 0.671532 0.522174
Si Si6 0.776376 0.696145 0.040451
Si Si7 0.948502 0.211081 0.349567
Si Si8 0.126053 0.916655 0.134449
O O1 0.656681 0.487394 0.935744
O O2 0.569619 0.564868 0.664780
O O3 0.387793 0.367202 0.938112
O O4 0.600746 0.212173 0.009086
O O5 0.915592 0.620865 0.778282
O O6 0.846078 0.648373 0.962347
O O7 0.858738 0.300053 0.173279
O O8 0.379884 0.158638 0.709613
O O9 0.500000 0.000000 0.000000
O O10 0.236646 0.892841 0.058782
O O11 0.500000 0.500000 0.500000
O O12 0.641572 0.282771 0.546254
O O13 0.178867 0.447127 0.743894
O O14 0.144010 0.783076 0.543088
O O15 0.103757 0.726518 0.366599
O O16 0.806892 0.914156 0.911634
O O17 0.000000 0.000000 0.500000
O O18 0.000000 0.000000 0.000000
#
# Coordination Sequence:
#
# PCOD9005198 Si02
#       8
#     2   2   2   2   2   2   2   2
#     4  11  22  37  65  92 123 160 210 257 311 374
#     4  10  23  40  63  93 120 163 212 254 311 375
#     4  12  21  39  62  88 124 165 206 253 310 371
#     4  11  20  38  63  90 121 162 207 256 315 368
#     4  10  21  38  61  87 118 162 203 250 310 370
#     4  10  21  42  63  86 125 160 203 263 313 362
#     4  10  22  41  62  84 128 167 203 255 313 367
#     4  12  25  39  62  93 123 163 208 257 315 375
#
# _framework density 20.82835
#
# number of rings (size 3 to 8) (size 9 to 14) (size 15 to 20)
#    0.000    1.250    3.750    1.875    0.000    6.500 
#    0.000    0.000    0.000    9.000    0.000    0.000 
#    0.000    0.000    0.000    0.000    0.000    0.000 
#
# Total GULP energy -89322.325207 kJ/mol
# GULP energy per Si atom -5582.645325 kJ/mol
# Density = 2.078094 g / cm^3
# Si number density = 20.828350 Si / 1000 Ang^3
#
#
#
# Elastic Constant Matrix: (Units=GPa)
#
#
# Indices 1 2 3 4 5 6 
#
# 1 68.7006 8.7197 40.1975 19.1116 9.6969 -10.2369
# 2 8.7197 68.1598 44.0015 3.2170 -1.3107 -22.0120
# 3 40.1975 44.0015 115.3640 2.6275 12.2771 -5.9941
# 4 19.1116 3.2170 2.6275 26.5313 -5.0651 4.0997
# 5 9.6969 -1.3107 12.2771 -5.0651 29.7740 6.6245
# 6 -10.2369 -22.0120 -5.9941 4.0997 6.6245 38.6545
#
#
#
# Elastic Compliance Matrix: (Units=1/GPa)
#
#
# Indices 1 2 3 4 5 6 
#
# 1 0.034126 0.011383 -0.012970 -0.030468 -0.014735 0.019266
# 2 0.011383 0.028532 -0.013125 -0.014065 -0.003740 0.019360
# 3 -0.012970 -0.013125 0.017419 0.010737 0.000384 -0.009412
# 4 -0.030468 -0.014065 0.010737 0.068454 0.022190 -0.025477
# 5 -0.014735 -0.003740 0.000384 0.022190 0.045421 -0.016110
# 6 0.019266 0.019360 -0.009412 -0.025477 -0.016110 0.046000
#
#
# Mechanical properties :
#
#
# Convention : Reuss Voigt Hill
#
# Bulk Modulus (GPa) = 19.74135 48.67353 34.20744
# Shear Modulus (GPa) = 17.46660 29.61234 23.53947
#
# Velocity S-wave (km/s) = 2.89900 3.77468 3.36544
# Velocity P-wave (km/s) = 4.55019 6.51285 5.61789
#
# Compressibility (1/GPa) = 0.05065511
#
# Stress axis : x y z
#
# Youngs Moduli (GPa) = 29.30294 35.04817 57.40887
#
# Poissons Ratio (x) = -0.39897 0.74458
# Poissons Ratio (y) = -0.33357 0.75348
# Poissons Ratio (z) = 0.38005 0.46000
#
# Static dielectric constant tensor:
#      x y z
#    x 1.767300 -0.008540 -0.015800 
#    y -0.008540 1.740960 0.009940 
#    z -0.015800 0.009940 1.768690 
# 
# From -- ./inp_files/306344.got.cif
#   From: 2010.05.17/outbox.cif.g08.bks.cpg/sg2_154_cif.got.tgz:306344.got - 2010.06.03 11:33:40.
