data_PCOD9005596
_publ_section_title
;
Structure prediction by ZEFSAII (Michael W. Deem and Ramdas Pophale) SiO2 
 PCOD9005596
Probable space group: P -1
;
_chemical_formula_sum "Si O2"
_cell_formula_units_Z 14
_cell_length_a 20.608178
_cell_length_b 8.946442
_cell_length_c 7.957815
_cell_angle_alpha 125.570849
_cell_angle_beta 115.166462
_cell_angle_gamma 29.116077
_cell_volume 567.788062
_symmetry_space_group_name_H-M "P -1"
_symmetry_group_IT_number 2
_symmetry_cell_setting 'triclinic'
loop_
_space_group_symop_operation_xyz
x,y,z
-x,-y,-z
loop_
_atom_site_type_symbol
_atom_site_label
_atom_site_fract_x
_atom_site_fract_y
_atom_site_fract_z
Si Si1 0.404990 0.314676 0.971004
Si Si2 0.704151 0.382475 0.282776
Si Si3 0.593586 0.306507 0.639386
Si Si4 0.844543 0.391250 0.102174
Si Si5 0.249452 0.325567 0.440591
Si Si6 0.187234 0.133434 0.665576
Si Si7 0.906335 0.685488 0.855822
O O1 0.443838 0.441145 0.125255
O O2 0.411079 0.284955 0.754579
O O3 0.260300 0.539744 0.013690
O O4 0.500000 0.000000 0.000000
O O5 0.745289 0.478627 0.491855
O O6 0.720999 0.187667 0.314782
O O7 0.798737 0.081518 0.041271
O O8 0.500000 0.500000 0.500000
O O9 0.610924 0.082818 0.616966
O O10 0.742535 0.032872 0.547761
O O11 0.823351 0.480606 0.334049
O O12 0.807308 0.662799 0.146916
O O13 0.000000 0.000000 0.000000
O O14 0.169078 0.345078 0.262658
O O15 0.026742 0.435514 0.686918
O O16 0.000000 0.500000 0.000000
#
# Coordination Sequence:
#
# PCOD9005596 Si02
#       7
#     2   2   2   2   2   2   2
#     4  11  22  42  66  90 126 177 218 268 327 393
#     4  10  21  42  63  97 133 169 210 268 325 385
#     4  11  23  42  64  91 125 171 221 268 322 391
#     4  10  22  38  64  97 131 168 220 266 325 388
#     4  10  21  38  65  89 130 173 206 264 329 383
#     4  10  22  38  62  97 127 162 220 260 320 383
#     4  10  21  38  62  95 134 166 208 261 330 382
#
# _framework density 24.657087000000001
#
# number of rings (size 3 to 8) (size 9 to 14) (size 15 to 20)
#    0.000    1.714    1.429    4.286    2.000    3.429 
#    5.143    5.714    0.000    0.000    0.000    0.000 
#    0.000    0.000    0.000    0.000    0.000    0.000 
#
# Total GULP energy -78005.765150 kJ/mol
# GULP energy per Si atom -5571.840368 kJ/mol
# Density = 2.460097 g / cm^3
# Si number density = 24.657087 Si / 1000 Ang^3
#
#
#
# Elastic Constant Matrix: (Units=GPa)
#
#
# Indices 1 2 3 4 5 6 
#
# 1 102.6916 40.0705 22.1163 7.8369 27.6170 33.7245
# 2 40.0705 96.9343 18.2061 -9.0045 23.6831 17.9847
# 3 22.1163 18.2061 81.2963 1.0685 46.5814 3.0214
# 4 7.8369 -9.0045 1.0685 33.8543 1.4838 11.8915
# 5 27.6170 23.6831 46.5814 1.4838 53.6658 6.2939
# 6 33.7245 17.9847 3.0214 11.8915 6.2939 48.1329
#
#
#
# Elastic Compliance Matrix: (Units=1/GPa)
#
#
# Indices 1 2 3 4 5 6 
#
# 1 0.015471 -0.003655 -0.000020 -0.001354 -0.005304 -0.008445
# 2 -0.003655 0.014068 0.000459 0.006046 -0.004467 -0.003634
# 3 -0.000020 0.000459 0.024565 -0.000107 -0.021648 0.001157
# 4 -0.001354 0.006046 -0.000107 0.034950 -0.001706 -0.009715
# 5 -0.005304 -0.004467 -0.021648 -0.001706 0.041975 0.001677
# 6 -0.008445 -0.003634 0.001157 -0.009715 0.001677 0.030159
#
#
# Mechanical properties :
#
#
# Convention : Reuss Voigt Hill
#
# Bulk Modulus (GPa) = 20.97631 49.07866 35.02749
# Shear Modulus (GPa) = 27.24612 40.49922 33.87267
#
# Velocity S-wave (km/s) = 3.32776 4.05717 3.71043
# Velocity P-wave (km/s) = 4.82608 6.47265 5.70904
#
# Compressibility (1/GPa) = 0.04767283
#
# Stress axis : x y z
#
# Youngs Moduli (GPa) = 64.63517 71.08276 40.70757
#
# Poissons Ratio (x) = 0.25980 0.00081
# Poissons Ratio (y) = 0.23624 -0.01867
# Poissons Ratio (z) = 0.00128 -0.03260
#
# Static dielectric constant tensor:
#      x y z
#    x 2.243550 0.065440 -0.114870 
#    y 0.065440 2.172800 0.009380 
#    z -0.114870 0.009380 2.043330 
# 
# From -- ./inp_files/222669.got.cif
#   From: 2010.05.17/outbox.cif.g08.bks.cpg/sg2_112_cif.got.tgz:222669.got - 2010.06.03 11:33:40.
