data_PCOD9005113
_publ_section_title
;
Structure prediction by ZEFSAII (Michael W. Deem and Ramdas Pophale) SiO2 
 PCOD9005113
Probable space group: P -1
;
_chemical_formula_sum "Si O2"
_cell_formula_units_Z 14
_cell_length_a 5.310346
_cell_length_b 15.137258
_cell_length_c 17.603102
_cell_angle_alpha 141.622041
_cell_angle_beta 49.503321
_cell_angle_gamma 110.187047
_cell_volume 626.449701
_symmetry_space_group_name_H-M "P -1"
_symmetry_group_IT_number 2
_symmetry_cell_setting 'triclinic'
loop_
_space_group_symop_operation_xyz
x,y,z
-x,-y,-z
loop_
_atom_site_type_symbol
_atom_site_label
_atom_site_fract_x
_atom_site_fract_y
_atom_site_fract_z
Si Si1 0.665156 0.682396 0.471257
Si Si2 0.645219 0.522201 0.708120
Si Si3 0.949718 0.176023 0.615700
Si Si4 0.278465 0.164734 0.690110
Si Si5 0.173877 0.654738 0.662933
Si Si6 0.869421 0.890959 0.004440
Si Si7 0.169828 0.833322 0.074042
O O1 0.549655 0.571999 0.363251
O O2 0.328383 0.747755 0.637331
O O3 0.022355 0.590950 0.386223
O O4 0.763179 0.804341 0.484672
O O5 0.830839 0.614772 0.679745
O O6 0.382218 0.652877 0.899769
O O7 0.558348 0.246883 0.706643
O O8 0.999039 0.242782 0.732173
O O9 0.000000 0.000000 0.500000
O O10 0.094513 0.143237 0.788569
O O11 0.500000 0.000000 0.500000
O O12 0.500000 0.500000 0.500000
O O13 0.074808 0.730124 0.814998
O O14 0.458474 0.912691 0.088620
O O15 0.979171 0.887485 0.067655
O O16 0.000000 0.000000 0.000000
#
# Coordination Sequence:
#
# PCOD9005113 Si02
#       7
#     2   2   2   2   2   2   2
#     4  11  21  37  62  91 124 160 205 256 299 362
#     4  10  21  38  60  92 123 163 202 245 311 372
#     4  10  22  40  59  89 120 154 206 259 306 355
#     4  10  22  40  62  83 111 158 207 247 299 358
#     4   9  20  38  63  92 126 162 202 248 301 371
#     4  11  24  39  61  96 127 162 204 247 313 381
#     4  11  22  42  62  83 126 165 196 256 312 361
#
# _framework density 22.348161000000001
#
# number of rings (size 3 to 8) (size 9 to 14) (size 15 to 20)
#    0.000    1.714    0.000    5.143    0.000    8.000 
#    0.000    5.714    0.000    0.000    0.000    0.000 
#    0.000    0.000    0.000    0.000    0.000    0.000 
#
# Total GULP energy -78198.796607 kJ/mol
# GULP energy per Si atom -5585.628329 kJ/mol
# Density = 2.229730 g / cm^3
# Si number density = 22.348161 Si / 1000 Ang^3
#
#
#
# Elastic Constant Matrix: (Units=GPa)
#
#
# Indices 1 2 3 4 5 6 
#
# 1 178.7358 45.3567 30.2034 -19.0702 32.4256 18.8556
# 2 45.3567 134.8775 36.2732 -45.0472 3.5354 22.7681
# 3 30.2034 36.2732 102.9552 -40.0387 -4.0257 3.4167
# 4 -19.0702 -45.0472 -40.0387 44.8422 -5.4572 -8.8374
# 5 32.4256 3.5354 -4.0257 -5.4572 17.3237 -12.6821
# 6 18.8556 22.7681 3.4167 -8.8374 -12.6821 33.1048
#
#
#
# Elastic Compliance Matrix: (Units=1/GPa)
#
#
# Indices 1 2 3 4 5 6 
#
# 1 -0.070864 0.002613 0.067445 0.106225 0.312882 0.179822
# 2 0.002613 0.012134 -0.002988 0.005741 -0.016823 -0.014438
# 3 0.067445 -0.002988 -0.046141 -0.081054 -0.279140 -0.160171
# 4 0.106225 0.005741 -0.081054 -0.100813 -0.432698 -0.248759
# 5 0.312882 -0.016823 -0.279140 -0.432698 -1.266213 -0.738411
# 6 0.179822 -0.014438 -0.160171 -0.248759 -0.738411 -0.395038
#
#
# Mechanical properties :
#
#
# Convention : Reuss Voigt Hill
#
# Bulk Modulus (GPa) = 34.16507 71.13722 52.65115
# Shear Modulus (GPa) = -2.51090 39.36983 18.42947
#
# Velocity S-wave (km/s) = -1.06112 4.20177 2.87479
# Velocity P-wave (km/s) = 3.71746 7.44582 5.88472
#
# Compressibility (1/GPa) = 0.02926966
#
# Stress axis : x y z
#
# Youngs Moduli (GPa) = -14.11159 82.41081 -21.67273
#
# Poissons Ratio (x) = -0.21535 1.46171
# Poissons Ratio (y) = 0.03688 -0.06476
# Poissons Ratio (z) = 0.95175 0.24624
#
# Static dielectric constant tensor:
#      x y z
#    x 1.896410 -0.001490 0.024350 
#    y -0.001490 1.879020 -0.002510 
#    z 0.024350 -0.002510 1.805400 
# 
# From -- ./inp_files/484413.got.cif
#   From: 2010.05.17/outbox.cif.g08.bks.cpg/sg2_243_cif.got.tgz:484413.got - 2010.06.03 11:33:40.
