data_PCOD9005196
_publ_section_title
;
Structure prediction by ZEFSAII (Michael W. Deem and Ramdas Pophale) SiO2 
 PCOD9005196
Probable space group: P -1
;
_chemical_formula_sum "Si O2"
_cell_formula_units_Z 13
_cell_length_a 9.020783
_cell_length_b 12.649118
_cell_length_c 7.890163
_cell_angle_alpha 124.584653
_cell_angle_beta 56.839211
_cell_angle_gamma 135.144101
_cell_volume 506.325123
_symmetry_space_group_name_H-M "P -1"
_symmetry_group_IT_number 2
_symmetry_cell_setting 'triclinic'
loop_
_space_group_symop_operation_xyz
x,y,z
-x,-y,-z
loop_
_atom_site_type_symbol
_atom_site_label
_atom_site_fract_x
_atom_site_fract_y
_atom_site_fract_z
Si Si1 0.240438 0.529389 0.192808
Si Si2 0.414270 0.947930 0.197019
Si Si3 0.038279 0.336066 0.491427
Si Si4 0.500000 0.500000 0.500000
Si Si5 0.164886 0.950959 0.856810
Si Si6 0.973201 0.761027 0.145556
Si Si7 0.590078 0.764211 0.429823
O O1 0.147534 0.418653 0.316108
O O2 0.477490 0.667262 0.237984
O O3 0.092381 0.591326 0.312523
O O4 0.207083 0.423962 0.954798
O O5 0.161638 0.806613 0.201792
O O6 0.578891 0.918590 0.157575
O O7 0.446177 0.101249 0.399130
O O8 0.500000 0.000000 0.000000
O O9 0.237264 0.375967 0.519064
O O10 0.877448 0.153348 0.375758
O O11 0.494721 0.639726 0.530891
O O12 0.096204 0.840971 0.965327
O O13 0.000000 0.000000 0.000000
O O14 0.842397 0.835371 0.331505
#
# Coordination Sequence:
#
# PCOD9005196 Si02
#       7
#     2   2   2   1   2   2   2
#     4   9  18  36  62  81 116 155 200 232 311 345
#     4  10  22  38  63  86 120 164 195 238 301 361
#     4   9  18  34  56  86 112 156 196 250 279 356
#     4  10  24  32  64  86 114 156 202 242 290 352
#     4  10  21  38  61  87 116 159 205 239 291 356
#     4  10  22  37  64  90 120 157 193 249 296 356
#     4  11  21  42  60  89 123 155 199 243 302 349
#
# _framework density 25.675203
#
# number of rings (size 3 to 8) (size 9 to 14) (size 15 to 20)
#    0.000    2.154    1.538    0.923   10.769    0.000 
#    0.000    3.077    0.000    0.000    0.000    0.000 
#    0.000    0.000    0.000    0.000    0.000    0.000 
#
# Total GULP energy -72474.026521 kJ/mol
# GULP energy per Si atom -5574.925117 kJ/mol
# Density = 2.561676 g / cm^3
# Si number density = 25.675203 Si / 1000 Ang^3
#
#
#
# Elastic Constant Matrix: (Units=GPa)
#
#
# Indices 1 2 3 4 5 6 
#
# 1 252.3742 38.0190 55.5220 28.2851 -0.7489 44.8724
# 2 38.0190 69.3826 3.7249 0.1945 15.3325 1.6800
# 3 55.5220 3.7249 90.1884 25.1005 0.6831 4.9141
# 4 28.2851 0.1945 25.1005 27.8120 2.0377 4.7226
# 5 -0.7489 15.3325 0.6831 2.0377 29.6806 -7.3756
# 6 44.8724 1.6800 4.9141 4.7226 -7.3756 53.3416
#
#
#
# Elastic Compliance Matrix: (Units=1/GPa)
#
#
# Indices 1 2 3 4 5 6 
#
# 1 0.006186 -0.003380 -0.002509 -0.003333 0.001090 -0.004421
# 2 -0.003380 0.018361 0.000365 0.003591 -0.009682 0.000574
# 3 -0.002509 0.000365 0.015896 -0.012152 0.000665 0.001802
# 4 -0.003333 0.003591 -0.012152 0.050941 -0.005520 -0.001463
# 5 0.001090 -0.009682 0.000665 -0.005520 0.040428 0.005406
# 6 -0.004421 0.000574 0.001802 -0.001463 0.005406 0.023159
#
#
# Mechanical properties :
#
#
# Convention : Reuss Voigt Hill
#
# Bulk Modulus (GPa) = 34.01786 67.38634 50.70210
# Shear Modulus (GPa) = 28.43878 43.14547 35.79213
#
# Velocity S-wave (km/s) = 3.33173 4.10376 3.73773
# Velocity P-wave (km/s) = 5.29893 6.98263 6.19821
#
# Compressibility (1/GPa) = 0.02939632
#
# Stress axis : x y z
#
# Youngs Moduli (GPa) = 161.65206 54.46379 62.90865
#
# Poissons Ratio (x) = 0.18406 0.15781
# Poissons Ratio (y) = 0.54631 -0.02295
# Poissons Ratio (z) = 0.40551 -0.01986
#
# Static dielectric constant tensor:
#      x y z
#    x 2.023380 0.015660 0.060310 
#    y 0.015660 2.108630 -0.057330 
#    z 0.060310 -0.057330 2.022520 
# 
# From -- ./inp_files/152189.got.cif
#   From: 2010.05.17/outbox.cif.g08.bks.cpg/sg2_77_cif.got.tgz:152189.got - 2010.06.03 11:33:40.
