data_PCOD9005262
_publ_section_title
;
Structure prediction by ZEFSAII (Michael W. Deem and Ramdas Pophale) SiO2 
 PCOD9005262
Probable space group: P -1
;
_chemical_formula_sum "Si O2"
_cell_formula_units_Z 16
_cell_length_a 10.644955
_cell_length_b 14.810705
_cell_length_c 6.842138
_cell_angle_alpha 92.451084
_cell_angle_beta 74.165130
_cell_angle_gamma 142.488136
_cell_volume 603.526969
_symmetry_space_group_name_H-M "P -1"
_symmetry_group_IT_number 2
_symmetry_cell_setting 'triclinic'
loop_
_space_group_symop_operation_xyz
x,y,z
-x,-y,-z
loop_
_atom_site_type_symbol
_atom_site_label
_atom_site_fract_x
_atom_site_fract_y
_atom_site_fract_z
Si Si1 0.284068 0.238708 0.836738
Si Si2 0.901119 0.562743 0.087722
Si Si3 0.641515 0.969296 0.579730
Si Si4 0.226297 0.004425 0.911213
Si Si5 0.259346 0.166418 0.400373
Si Si6 0.705798 0.193680 0.771248
Si Si7 0.833031 0.352046 0.351542
Si Si8 0.501650 0.472186 0.268652
O O1 0.277337 0.139637 0.940059
O O2 0.333631 0.232049 0.595586
O O3 0.471829 0.416427 0.836012
O O4 0.036065 0.145840 0.930350
O O5 0.799702 0.428865 0.262577
O O6 0.731502 0.547942 0.155780
O O7 0.142344 0.719548 0.093615
O O8 0.948000 0.559067 0.846169
O O9 0.765011 0.016460 0.326371
O O10 0.649361 0.881413 0.693480
O O11 0.379963 0.831680 0.627203
O O12 0.731474 0.109258 0.656215
O O13 0.443369 0.069979 0.899792
O O14 0.313545 0.291752 0.283931
O O15 0.000000 0.000000 0.500000
O O16 0.816647 0.331004 0.589590
O O17 0.500000 0.500000 0.500000
#
# Coordination Sequence:
#
# PCOD9005262 Si02
#       8
#     2   2   2   2   2   2   2   2
#     4   9  20  37  66  85 123 174 217 257 322 381
#     4  11  24  41  66  95 128 168 215 263 327 383
#     4  10  21  38  61  89 129 168 208 266 324 376
#     4   9  19  40  61  92 127 175 211 265 324 373
#     4  10  21  39  60  87 124 163 215 269 320 382
#     4  11  24  38  67  98 129 168 217 261 319 391
#     4  10  22  44  62  90 132 171 201 270 325 374
#     4  10  22  39  63  89 123 171 210 268 324 379
#
# _framework density 26.510828
#
# number of rings (size 3 to 8) (size 9 to 14) (size 15 to 20)
#    0.000    2.000    1.250    1.875    8.750    1.500 
#    0.000    0.000    0.000    7.500    0.000    0.000 
#    0.000    0.000    0.000    0.000    0.000    0.000 
#
# Total GULP energy -89458.247260 kJ/mol
# GULP energy per Si atom -5591.140454 kJ/mol
# Density = 2.645049 g / cm^3
# Si number density = 26.510828 Si / 1000 Ang^3
#
#
#
# Elastic Constant Matrix: (Units=GPa)
#
#
# Indices 1 2 3 4 5 6 
#
# 1 80.1573 40.9744 34.4680 -2.2005 -24.8737 -3.9095
# 2 40.9744 150.3286 17.6862 -7.4313 -11.5603 -43.5884
# 3 34.4680 17.6862 133.8026 9.5819 -10.9975 -11.6484
# 4 -2.2005 -7.4313 9.5819 36.6937 -8.9560 1.6374
# 5 -24.8737 -11.5603 -10.9975 -8.9560 44.4853 -0.1763
# 6 -3.9095 -43.5884 -11.6484 1.6374 -0.1763 48.6407
#
#
#
# Elastic Compliance Matrix: (Units=1/GPa)
#
#
# Indices 1 2 3 4 5 6 
#
# 1 0.019777 -0.005194 -0.004267 0.003726 0.009387 -0.004178
# 2 -0.005194 0.010808 0.000659 0.001380 0.000382 0.009380
# 3 -0.004267 0.000659 0.008845 -0.002678 -0.000557 0.002454
# 4 0.003726 0.001380 -0.002678 0.030387 0.007897 -0.000099
# 5 0.009387 0.000382 -0.000557 0.007897 0.029283 0.000804
# 6 -0.004178 0.009380 0.002454 -0.000099 0.000804 0.029223
#
#
# Mechanical properties :
#
#
# Convention : Reuss Voigt Hill
#
# Bulk Modulus (GPa) = 45.81840 61.17175 53.49508
# Shear Modulus (GPa) = 32.63668 44.04127 38.33897
#
# Velocity S-wave (km/s) = 3.51247 4.08027 3.80697
# Velocity P-wave (km/s) = 5.81122 6.73220 6.28859
#
# Compressibility (1/GPa) = 0.02182529
#
# Stress axis : x y z
#
# Youngs Moduli (GPa) = 50.56462 92.52609 113.05302
#
# Poissons Ratio (x) = 0.48056 0.48240
# Poissons Ratio (y) = 0.26262 -0.07445
# Poissons Ratio (z) = 0.21576 -0.06094
#
# Static dielectric constant tensor:
#      x y z
#    x 2.131720 -0.001690 0.120990 
#    y -0.001690 2.090240 -0.019180 
#    z 0.120990 -0.019180 2.130410 
# 
# From -- ./inp_files/270451.got.cif
#   From: 2010.05.17/outbox.cif.g08.bks.cpg/sg2_136_cif.got.tgz:270451.got - 2010.06.03 11:33:40.
