data_PCOD9005052
_publ_section_title
;
Structure prediction by ZEFSAII (Michael W. Deem and Ramdas Pophale) SiO2 
 PCOD9005052
Probable space group: P -1
;
_chemical_formula_sum "Si O2"
_cell_formula_units_Z 16
_cell_length_a 7.417269
_cell_length_b 15.479074
_cell_length_c 11.863929
_cell_angle_alpha 112.533560
_cell_angle_beta 36.893815
_cell_angle_gamma 119.672419
_cell_volume 710.291693
_symmetry_space_group_name_H-M "P -1"
_symmetry_group_IT_number 2
_symmetry_cell_setting 'triclinic'
loop_
_space_group_symop_operation_xyz
x,y,z
-x,-y,-z
loop_
_atom_site_type_symbol
_atom_site_label
_atom_site_fract_x
_atom_site_fract_y
_atom_site_fract_z
Si Si1 0.122625 0.289081 0.314431
Si Si2 0.456589 0.504528 0.155360
Si Si3 0.622625 0.789081 0.352026
Si Si4 0.234598 0.094151 0.089359
Si Si5 0.043410 0.995472 0.607422
Si Si6 0.734598 0.594151 0.270194
Si Si7 0.909625 0.580115 0.418239
Si Si8 0.409625 0.080115 0.752251
O O1 0.284493 0.392691 0.223774
O O2 0.258580 0.206090 0.161177
O O3 0.157530 0.324954 0.446297
O O4 0.750000 0.250000 0.454361
O O5 0.752536 0.550710 0.114952
O O6 0.220880 0.569242 0.316194
O O7 0.500000 0.500000 0.000000
O O8 0.784494 0.892691 0.384423
O O9 0.758579 0.706090 0.286333
O O10 0.657530 0.824954 0.221126
O O11 0.447899 0.090714 0.873171
O O12 0.252536 0.050710 0.183222
O O13 0.884672 0.020231 0.183212
O O14 0.279120 0.930758 0.467832
O O15 0.000000 0.000000 0.500000
O O16 0.947899 0.590714 0.269644
O O17 0.384672 0.520231 0.452348
#
# Coordination Sequence:
#
# PCOD9005052 Si02
#       8
#     2   2   2   2   2   2   2   2
#     4  11  19  37  65  85 114 163 211 246 304 372
#     4  11  23  38  59  92 128 159 199 257 309 363
#     4  11  19  37  65  85 114 163 211 246 304 372
#     4  10  21  38  60  89 115 157 210 248 300 368
#     4  11  23  38  59  92 128 159 199 257 309 363
#     4  10  21  38  60  89 115 157 210 248 300 368
#     4  10  21  38  61  85 119 158 203 257 300 362
#     4  10  21  38  61  85 119 158 203 257 300 362
#
# _framework density 22.525956999999998
#
# number of rings (size 3 to 8) (size 9 to 14) (size 15 to 20)
#    0.000    1.500    5.000    1.500    3.500    1.000 
#    0.000    0.000    0.000    1.500    0.000    0.000 
#    0.000    0.000    0.000    0.000    0.000    0.000 
#
# Total GULP energy -89284.614469 kJ/mol
# GULP energy per Si atom -5580.288404 kJ/mol
# Density = 2.247469 g / cm^3
# Si number density = 22.525957 Si / 1000 Ang^3
#
#
#
# Elastic Constant Matrix: (Units=GPa)
#
#
# Indices 1 2 3 4 5 6 
#
# 1 92.4758 28.1362 26.5465 2.2465 40.3059 -22.1110
# 2 28.1362 135.8543 28.9985 19.9573 18.9771 -13.4049
# 3 26.5465 28.9985 100.5948 11.4333 41.7877 -7.1702
# 4 2.2465 19.9573 11.4333 22.0710 -3.6710 4.3298
# 5 40.3059 18.9771 41.7877 -3.6710 49.6157 -3.7281
# 6 -22.1110 -13.4049 -7.1702 4.3298 -3.7281 22.2614
#
#
#
# Elastic Compliance Matrix: (Units=1/GPa)
#
#
# Indices 1 2 3 4 5 6 
#
# 1 0.030272 0.003027 0.010096 -0.023291 -0.033416 0.034077
# 2 0.003027 0.010835 0.002243 -0.015017 -0.008724 0.011714
# 3 0.010096 0.002243 0.022173 -0.022788 -0.028048 0.018255
# 4 -0.023291 -0.015017 -0.022788 0.090522 0.046853 -0.049276
# 5 -0.033416 -0.008724 -0.028048 0.046853 0.074411 -0.044128
# 6 0.034077 0.011714 0.018255 -0.049276 -0.044128 0.093895
#
#
# Mechanical properties :
#
#
# Convention : Reuss Voigt Hill
#
# Bulk Modulus (GPa) = 10.63685 55.14303 32.88994
# Shear Modulus (GPa) = 15.49361 35.13920 25.31641
#
# Velocity S-wave (km/s) = 2.62546 3.95390 3.35606
# Velocity P-wave (km/s) = 3.73136 6.73627 5.44520
#
# Compressibility (1/GPa) = 0.09401279
#
# Stress axis : x y z
#
# Youngs Moduli (GPa) = 33.03342 92.28950 45.10058
#
# Poissons Ratio (x) = -0.27937 -0.45533
# Poissons Ratio (y) = -0.10000 -0.10117
# Poissons Ratio (z) = -0.33350 -0.20702
#
# Static dielectric constant tensor:
#      x y z
#    x 1.914450 -0.035410 0.038500 
#    y -0.035410 1.817690 0.013380 
#    z 0.038500 0.013380 1.921000 
# 
# From -- ./inp_files/399385.got.cif
#   From: 2010.05.17/outbox.cif.g08.bks.cpg/sg2_200_cif.got.tgz:399385.got - 2010.06.03 11:33:40.
