data_PCOD9005143
_publ_section_title
;
Structure prediction by ZEFSAII (Michael W. Deem and Ramdas Pophale) SiO2 
 PCOD9005143
Probable space group: P -1
;
_chemical_formula_sum "Si O2"
_cell_formula_units_Z 14
_cell_length_a 14.908799
_cell_length_b 4.974762
_cell_length_c 26.207763
_cell_angle_alpha 79.995330
_cell_angle_beta 20.627856
_cell_angle_gamma 90.561855
_cell_volume 585.221689
_symmetry_space_group_name_H-M "P -1"
_symmetry_group_IT_number 2
_symmetry_cell_setting 'triclinic'
loop_
_space_group_symop_operation_xyz
x,y,z
-x,-y,-z
loop_
_atom_site_type_symbol
_atom_site_label
_atom_site_fract_x
_atom_site_fract_y
_atom_site_fract_z
Si Si1 0.363083 0.398997 0.705395
Si Si2 0.217369 0.534996 0.160365
Si Si3 0.570335 0.886446 0.048428
Si Si4 0.684645 0.850222 0.440739
Si Si5 0.146442 0.907520 0.756930
Si Si6 0.710712 0.537177 0.143015
Si Si7 0.294614 0.868089 0.923800
O O1 0.650611 0.613624 0.511507
O O2 0.260353 0.056091 0.746996
O O3 0.430658 0.483661 0.725790
O O4 0.042492 0.389386 0.871895
O O5 0.275200 0.650682 0.184162
O O6 0.500000 0.500000 0.000000
O O7 0.931652 0.202871 0.313159
O O8 0.269860 0.817718 0.085285
O O9 0.533375 0.997573 0.119859
O O10 0.797239 0.754602 0.942429
O O11 0.749980 0.803681 0.349596
O O12 0.359743 0.799413 0.622692
O O13 0.567944 0.278230 0.182966
O O14 0.749369 0.863683 0.089905
O O15 0.000000 0.500000 0.000000
#
# Coordination Sequence:
#
# PCOD9005143 Si02
#       7
#     2   2   2   2   2   2   2
#     4  10  22  33  58  88 130 160 203 260 325 368
#     4  11  24  42  61  86 128 169 220 252 319 390
#     4  10  24  39  63  90 124 172 211 269 309 387
#     4  11  24  35  62  91 129 168 201 268 318 392
#     4  10  23  36  57  92 128 155 208 251 328 378
#     4  10  21  38  60  94 130 166 211 266 322 380
#     4  10  23  37  65  92 128 167 217 262 321 379
#
# _framework density 23.922559
#
# number of rings (size 3 to 8) (size 9 to 14) (size 15 to 20)
#    0.000    1.714    1.429    2.143   22.000    0.000 
#    0.000    0.000    0.000    1.714    0.000    0.000 
#    0.000    0.000    0.000    0.000    0.000    0.000 
#
# Total GULP energy -78008.915566 kJ/mol
# GULP energy per Si atom -5572.065398 kJ/mol
# Density = 2.386811 g / cm^3
# Si number density = 23.922559 Si / 1000 Ang^3
#
#
#
# Elastic Constant Matrix: (Units=GPa)
#
#
# Indices 1 2 3 4 5 6 
#
# 1 133.8214 18.8383 24.2686 1.7923 -0.2393 50.6979
# 2 18.8383 87.8286 23.8900 6.9029 -24.4459 25.5534
# 3 24.2686 23.8900 42.8876 1.0964 -6.0309 1.4379
# 4 1.7923 6.9029 1.0964 41.5735 3.9008 1.4142
# 5 -0.2393 -24.4459 -6.0309 3.9008 34.0464 14.9199
# 6 50.6979 25.5534 1.4379 1.4142 14.9199 50.7462
#
#
#
# Elastic Compliance Matrix: (Units=1/GPa)
#
#
# Indices 1 2 3 4 5 6 
#
# 1 0.027504 0.026511 -0.023037 -0.006839 0.038401 -0.051275
# 2 0.026511 0.056702 -0.034084 -0.013601 0.068816 -0.073926
# 3 -0.023037 -0.034084 0.048002 0.007334 -0.038906 0.050052
# 4 -0.006839 -0.013601 0.007334 0.027641 -0.019799 0.018525
# 5 0.038401 0.068816 -0.038906 -0.019799 0.121336 -0.107037
# 6 -0.051275 -0.073926 0.050052 0.018525 -0.107037 0.137693
#
#
# Mechanical properties :
#
#
# Convention : Reuss Voigt Hill
#
# Bulk Modulus (GPa) = 14.08678 44.28126 29.18402
# Shear Modulus (GPa) = 9.92535 38.44261 24.18398
#
# Velocity S-wave (km/s) = 2.03911 4.01304 3.18296
# Velocity P-wave (km/s) = 3.38308 6.32638 5.07288
#
# Compressibility (1/GPa) = 0.07098856
#
# Stress axis : x y z
#
# Youngs Moduli (GPa) = 36.35840 17.63604 20.83251
#
# Poissons Ratio (x) = -0.46755 0.47992
# Poissons Ratio (y) = -0.96390 0.71005
# Poissons Ratio (z) = 0.83760 0.60110
#
# Static dielectric constant tensor:
#      x y z
#    x 2.175790 -0.125730 0.070230 
#    y -0.125730 2.264830 -0.026830 
#    z 0.070230 -0.026830 1.909280 
# 
# From -- ./inp_files/618991.got.cif
#   From: 2010.05.17/outbox.cif.g08.bks.cpg/sg2_310_cif.got.tgz:618991.got - 2010.06.03 11:33:40.
