data_PCOD9005215
_publ_section_title
;
Structure prediction by ZEFSAII (Michael W. Deem and Ramdas Pophale) SiO2 
 PCOD9005215
Probable space group: P -1
;
_chemical_formula_sum "Si O2"
_cell_formula_units_Z 14
_cell_length_a 10.868353
_cell_length_b 18.739294
_cell_length_c 9.739306
_cell_angle_alpha 40.556497
_cell_angle_beta 101.090855
_cell_angle_gamma 133.082218
_cell_volume 683.844808
_symmetry_space_group_name_H-M "P -1"
_symmetry_group_IT_number 2
_symmetry_cell_setting 'triclinic'
loop_
_space_group_symop_operation_xyz
x,y,z
-x,-y,-z
loop_
_atom_site_type_symbol
_atom_site_label
_atom_site_fract_x
_atom_site_fract_y
_atom_site_fract_z
Si Si1 0.560818 0.012162 0.160754
Si Si2 0.136736 0.516767 0.108293
Si Si3 0.960869 0.585053 0.446409
Si Si4 0.393804 0.274918 0.412604
Si Si5 0.356354 0.069117 0.463367
Si Si6 0.473370 0.781602 0.262625
Si Si7 0.141217 0.308020 0.228732
O O1 0.602130 0.012352 0.324833
O O2 0.406324 0.806268 0.349621
O O3 0.474004 0.073108 0.034176
O O4 0.813403 0.182436 0.893448
O O5 0.051737 0.441639 0.355439
O O6 0.125439 0.391324 0.215702
O O7 0.409502 0.745329 0.842808
O O8 0.000000 0.500000 0.000000
O O9 0.713401 0.429417 0.551693
O O10 0.000000 0.500000 0.500000
O O11 0.348935 0.159779 0.444091
O O12 0.359992 0.183648 0.680204
O O13 0.236702 0.265820 0.374768
O O14 0.663847 0.510638 0.106147
O O15 0.113365 0.891740 0.595418
#
# Coordination Sequence:
#
# PCOD9005215 Si02
#       7
#     2   2   2   2   2   2   2
#     4   9  19  32  60  90 114 152 203 242 299 363
#     4  11  27  39  58  94 130 154 203 262 309 356
#     4  10  22  38  59  84 120 164 200 244 307 369
#     4   9  19  37  63  93 118 164 205 252 284 379
#     4  10  21  38  64  95 123 159 203 252 306 362
#     4   9  18  32  56  83 116 145 200 242 290 349
#     4  10  21  38  61  87 129 161 202 247 315 346
#
# _framework density 20.472480000000001
#
# number of rings (size 3 to 8) (size 9 to 14) (size 15 to 20)
#    0.000    2.286    0.000    1.286   18.000    1.714 
#    0.000    0.714    0.000    4.286    0.000    0.000 
#    0.000    0.000    0.000    0.000    0.000    0.000 
#
# Total GULP energy -77963.307996 kJ/mol
# GULP energy per Si atom -5568.807714 kJ/mol
# Density = 2.042588 g / cm^3
# Si number density = 20.472480 Si / 1000 Ang^3
#
#
#
# Elastic Constant Matrix: (Units=GPa)
#
#
# Indices 1 2 3 4 5 6 
#
# 1 83.2863 33.4099 36.6459 9.3698 20.0408 8.0361
# 2 33.4099 110.3067 53.8998 -19.7094 -5.6694 15.5807
# 3 36.6459 53.8998 93.4918 -3.7343 0.9691 11.8469
# 4 9.3698 -19.7094 -3.7343 34.0013 6.0829 -3.5334
# 5 20.0408 -5.6694 0.9691 6.0829 33.6900 5.4797
# 6 8.0361 15.5807 11.8469 -3.5334 5.4797 19.5630
#
#
#
# Elastic Compliance Matrix: (Units=1/GPa)
#
#
# Indices 1 2 3 4 5 6 
#
# 1 0.019883 -0.005708 -0.004827 -0.007118 -0.011568 0.001256
# 2 -0.005708 0.016727 -0.006190 0.008754 0.005999 -0.007328
# 3 -0.004827 -0.006190 0.016588 -0.001248 0.002225 -0.003982
# 4 -0.007118 0.008754 -0.001248 0.036985 -0.001557 0.003824
# 5 -0.011568 0.005999 0.002225 -0.001557 0.039877 -0.012824
# 6 0.001256 -0.007328 -0.003982 0.003824 -0.012824 0.063131
#
#
# Mechanical properties :
#
#
# Convention : Reuss Voigt Hill
#
# Bulk Modulus (GPa) = 50.63336 59.44400 55.03868
# Shear Modulus (GPa) = 21.43872 28.32613 24.88243
#
# Velocity S-wave (km/s) = 3.23955 3.72374 3.49005
# Velocity P-wave (km/s) = 6.22728 6.89836 6.57139
#
# Compressibility (1/GPa) = 0.01974983
#
# Stress axis : x y z
#
# Youngs Moduli (GPa) = 50.29341 59.78519 60.28362
#
# Poissons Ratio (x) = 0.34123 0.29097
# Poissons Ratio (y) = 0.28705 0.37315
# Poissons Ratio (z) = 0.24275 0.37007
#
# Static dielectric constant tensor:
#      x y z
#    x 1.722570 0.042850 0.004230 
#    y 0.042850 1.861220 -0.078660 
#    z 0.004230 -0.078660 1.847050 
# 
# From -- ./inp_files/202905.got.cif
#   From: 2010.05.17/outbox.cif.g08.bks.cpg/sg2_102_cif.got.tgz:202905.got - 2010.06.03 11:33:40.
