data_PCOD9005141
_publ_section_title
;
Structure prediction by ZEFSAII (Michael W. Deem and Ramdas Pophale) SiO2 
 PCOD9005141
Probable space group: P -1
;
_chemical_formula_sum "Si O2"
_cell_formula_units_Z 14
_cell_length_a 22.790896
_cell_length_b 15.702799
_cell_length_c 5.482431
_cell_angle_alpha 81.020338
_cell_angle_beta 98.870348
_cell_angle_gamma 160.917698
_cell_volume 633.449714
_symmetry_space_group_name_H-M "P -1"
_symmetry_group_IT_number 2
_symmetry_cell_setting 'triclinic'
loop_
_space_group_symop_operation_xyz
x,y,z
-x,-y,-z
loop_
_atom_site_type_symbol
_atom_site_label
_atom_site_fract_x
_atom_site_fract_y
_atom_site_fract_z
Si Si1 0.015377 0.939087 0.205321
Si Si2 0.717614 0.492985 0.549907
Si Si3 0.388445 0.473272 0.388261
Si Si4 0.660574 0.731794 0.190258
Si Si5 0.066484 0.329791 0.049376
Si Si6 0.559822 0.976146 0.759148
Si Si7 0.302911 0.789593 0.757537
O O1 0.901791 0.789316 0.445477
O O2 0.226068 0.213265 0.240517
O O3 0.926252 0.734752 0.116834
O O4 0.000000 0.000000 0.000000
O O5 0.622184 0.438394 0.665174
O O6 0.788471 0.504503 0.729960
O O7 0.582496 0.284063 0.338246
O O8 0.574175 0.682806 0.345348
O O9 0.328939 0.350849 0.661644
O O10 0.500000 0.500000 0.000000
O O11 0.859437 0.040167 0.128160
O O12 0.129442 0.503799 0.885017
O O13 0.449384 0.913830 0.756684
O O14 0.704008 0.182486 0.535353
O O15 0.634125 0.062689 0.042627
#
# Coordination Sequence:
#
# PCOD9005141 Si02
#       7
#     2   2   2   2   2   2   2
#     4  12  22  35  59  93 125 156 201 260 314 376
#     4  12  23  37  62  94 122 161 205 265 321 373
#     4  11  24  40  58  87 127 165 211 252 311 382
#     4  11  24  42  58  83 125 172 208 253 303 384
#     4  12  22  37  64  90 122 165 209 254 323 368
#     4  10  21  38  61  94 130 158 207 265 330 375
#     4  10  21  38  60  94 130 161 203 269 320 386
#
# _framework density 22.101202000000001
#
# number of rings (size 3 to 8) (size 9 to 14) (size 15 to 20)
#    0.000    0.857    5.714    3.857    0.000    0.000 
#    0.000    0.000    0.000    1.714    0.000    0.000 
#    0.000    0.000    0.000    0.000    0.000    0.000 
#
# Total GULP energy -78017.086636 kJ/mol
# GULP energy per Si atom -5572.649045 kJ/mol
# Density = 2.205090 g / cm^3
# Si number density = 22.101202 Si / 1000 Ang^3
#
#
#
# Elastic Constant Matrix: (Units=GPa)
#
#
# Indices 1 2 3 4 5 6 
#
# 1 41.7566 37.4311 6.2305 -6.1788 -11.6132 2.4182
# 2 37.4311 130.7446 31.4464 -23.9090 -2.0035 -11.9869
# 3 6.2305 31.4464 77.2210 -8.3085 -6.2508 -0.3043
# 4 -6.1788 -23.9090 -8.3085 46.2772 -5.6993 -9.5993
# 5 -11.6132 -2.0035 -6.2508 -5.6993 27.5503 10.5110
# 6 2.4182 -11.9869 -0.3043 -9.5993 10.5110 32.1486
#
#
#
# Elastic Compliance Matrix: (Units=1/GPa)
#
#
# Indices 1 2 3 4 5 6 
#
# 1 0.045075 -0.015583 0.004495 -0.001835 0.025376 -0.018002
# 2 -0.015583 0.015424 -0.005105 0.006237 -0.009881 0.011968
# 3 0.004495 -0.005105 0.015264 0.000680 0.006684 -0.004079
# 4 -0.001835 0.006237 0.000680 0.026980 0.001600 0.010003
# 5 0.025376 -0.009881 0.006684 0.001600 0.057183 -0.023748
# 6 -0.018002 0.011968 -0.004079 0.010003 -0.023748 0.047635
#
#
# Mechanical properties :
#
#
# Convention : Reuss Voigt Hill
#
# Bulk Modulus (GPa) = 23.05410 44.43757 33.74583
# Shear Modulus (GPa) = 19.65356 32.83614 26.24485
#
# Velocity S-wave (km/s) = 2.98527 3.85868 3.44973
# Velocity P-wave (km/s) = 4.72612 6.32476 5.58296
#
# Compressibility (1/GPa) = 0.04337623
#
# Stress axis : x y z
#
# Youngs Moduli (GPa) = 22.18539 64.83394 65.51206
#
# Poissons Ratio (x) = 1.01029 -0.29445
# Poissons Ratio (y) = 0.34571 0.33446
# Poissons Ratio (z) = -0.09972 0.33100
#
# Static dielectric constant tensor:
#      x y z
#    x 1.795060 0.006340 0.012190 
#    y 0.006340 1.887540 0.096600 
#    z 0.012190 0.096600 2.161090 
# 
# From -- ./inp_files/119420.got.cif
#   From: 2010.05.17/outbox.cif.g08.bks.cpg/sg2_60_cif.got.tgz:119420.got - 2010.06.03 11:33:40.
