data_PCOD9005027
_publ_section_title
;
Structure prediction by ZEFSAII (Michael W. Deem and Ramdas Pophale) SiO2 
 PCOD9005027
Probable space group: P -1
;
_chemical_formula_sum "Si O2"
_cell_formula_units_Z 16
_cell_length_a 13.669933
_cell_length_b 11.060718
_cell_length_c 12.550473
_cell_angle_alpha 119.182753
_cell_angle_beta 42.552413
_cell_angle_gamma 148.705539
_cell_volume 609.794929
_symmetry_space_group_name_H-M "P -1"
_symmetry_group_IT_number 2
_symmetry_cell_setting 'triclinic'
loop_
_space_group_symop_operation_xyz
x,y,z
-x,-y,-z
loop_
_atom_site_type_symbol
_atom_site_label
_atom_site_fract_x
_atom_site_fract_y
_atom_site_fract_z
Si Si1 0.270130 0.261704 0.505481
Si Si2 0.586837 0.411535 0.761553
Si Si3 0.006016 0.912059 0.748587
Si Si4 0.401407 0.549622 0.882405
Si Si5 0.197371 0.901784 0.170354
Si Si6 0.262255 0.855873 0.552714
Si Si7 0.120913 0.876116 0.991893
Si Si8 0.104704 0.690087 0.369565
O O1 0.500000 0.500000 0.500000
O O2 0.416611 0.318129 0.312056
O O3 0.060059 0.214758 0.638313
O O4 0.106220 0.013148 0.590944
O O5 0.417530 0.404969 0.849572
O O6 0.741394 0.609260 0.820613
O O7 0.821428 0.541206 0.554632
O O8 0.401268 0.136604 0.826943
O O9 0.213103 0.979246 0.668549
O O10 0.976757 0.044542 0.867308
O O11 0.563552 0.799239 0.918785
O O12 0.106011 0.357107 0.005749
O O13 0.239772 0.840694 0.213790
O O14 0.130972 0.796172 0.058673
O O15 0.276817 0.855565 0.410474
O O16 0.002322 0.553201 0.653494
O O17 0.500000 0.000000 0.500000
#
# Coordination Sequence:
#
# PCOD9005027 Si02
#       8
#     2   2   2   2   2   2   2   2
#     4  11  19  33  56  89 121 153 189 244 305 349
#     4  11  21  38  59  87 134 156 190 244 304 366
#     4  10  21  38  60  87 123 157 196 240 297 359
#     4  12  20  33  55  88 125 162 190 229 304 362
#     4  11  22  37  60  86 124 155 196 252 297 360
#     4  10  23  39  61  89 116 159 205 254 290 336
#     4  11  24  37  57  97 128 157 187 240 315 368
#     4  10  23  41  63  90 116 156 208 249 293 347
#
# _framework density 26.238330000000001
#
# number of rings (size 3 to 8) (size 9 to 14) (size 15 to 20)
#    0.000    1.250    6.250    2.625    3.500    1.000 
#    0.000    0.000    0.000    6.750    0.000   18.375 
#    0.000    0.000    0.000    0.000    0.000    0.000 
#
# Total GULP energy -89542.579132 kJ/mol
# GULP energy per Si atom -5596.411196 kJ/mol
# Density = 2.617861 g / cm^3
# Si number density = 26.238330 Si / 1000 Ang^3
#
#
#
# Elastic Constant Matrix: (Units=GPa)
#
#
# Indices 1 2 3 4 5 6 
#
# 1 161.5333 21.9614 31.4722 1.1531 13.4678 13.7671
# 2 21.9614 65.3385 7.4563 -0.3810 -7.0865 15.7111
# 3 31.4722 7.4563 94.7675 -10.8663 21.5504 1.7157
# 4 1.1531 -0.3810 -10.8663 30.1121 6.1793 -5.7116
# 5 13.4678 -7.0865 21.5504 6.1793 26.6278 -13.0520
# 6 13.7671 15.7111 1.7157 -5.7116 -13.0520 46.8147
#
#
#
# Elastic Compliance Matrix: (Units=1/GPa)
#
#
# Indices 1 2 3 4 5 6 
#
# 1 0.007334 -0.002174 -0.001220 -0.000327 -0.004543 -0.002689
# 2 -0.002174 0.017917 -0.002419 -0.002630 0.006589 -0.003769
# 3 -0.001220 -0.002419 0.015884 0.008539 -0.016291 -0.002911
# 4 -0.000327 -0.002630 0.008539 0.039782 -0.016184 0.001007
# 5 -0.004543 0.006589 -0.016291 -0.016184 0.066534 0.016297
# 6 -0.002689 -0.003769 -0.002911 0.001007 0.016297 0.028190
#
#
# Mechanical properties :
#
#
# Convention : Reuss Voigt Hill
#
# Bulk Modulus (GPa) = 33.88913 49.26878 41.57896
# Shear Modulus (GPa) = 25.36723 38.09421 31.73072
#
# Velocity S-wave (km/s) = 3.11272 3.81445 3.48131
# Velocity P-wave (km/s) = 5.08553 6.18209 5.66043
#
# Compressibility (1/GPa) = 0.02950799
#
# Stress axis : x y z
#
# Youngs Moduli (GPa) = 136.34682 55.81203 62.95593
#
# Poissons Ratio (x) = 0.12133 0.07683
# Poissons Ratio (y) = 0.29641 0.15232
# Poissons Ratio (z) = 0.16640 0.13504
#
# Static dielectric constant tensor:
#      x y z
#    x 2.104610 0.000770 0.005640 
#    y 0.000770 2.051740 0.031010 
#    z 0.005640 0.031010 2.132130 
# 
# From -- ./inp_files/456466.got.cif
#   From: 2010.05.17/outbox.cif.g08.bks.cpg/sg2_229_cif.got.tgz:456466.got - 2010.06.03 11:33:40.
