data_PCOD9006618
_publ_section_title
;
Structure prediction by ZEFSAII (Michael W. Deem and Ramdas Pophale) SiO2 
 PCOD9006618
Probable space group: P -1
;
_chemical_formula_sum "Si O2"
_cell_formula_units_Z 10
_cell_length_a 8.182600
_cell_length_b 5.236769
_cell_length_c 11.239279
_cell_angle_alpha 61.642132
_cell_angle_beta 80.364058
_cell_angle_gamma 94.373442
_cell_volume 411.044944
_symmetry_space_group_name_H-M "P -1"
_symmetry_group_IT_number 2
_symmetry_cell_setting 'triclinic'
loop_
_space_group_symop_operation_xyz
x,y,z
-x,-y,-z
loop_
_atom_site_type_symbol
_atom_site_label
_atom_site_fract_x
_atom_site_fract_y
_atom_site_fract_z
Si Si1 0.864927 0.693803 0.088368
Si Si2 0.865797 0.624856 0.828658
Si Si3 0.917251 0.170477 0.573956
Si Si4 0.508335 0.435615 0.154111
Si Si5 0.531973 0.163397 0.584355
O O1 0.664127 0.658849 0.148114
O O2 0.968601 0.502167 0.199388
O O3 0.843572 0.559841 0.985994
O O4 0.000000 0.000000 0.000000
O O5 0.918607 0.974474 0.734171
O O6 0.688663 0.537708 0.797147
O O7 0.727331 0.188991 0.572230
O O8 0.000000 0.500000 0.500000
O O9 0.000000 0.000000 0.500000
O O10 0.539586 0.103470 0.253914
O O11 0.500000 0.500000 0.000000
O O12 0.500000 0.500000 0.500000
O O13 0.500000 0.000000 0.500000
#
# Coordination Sequence:
#
# PCOD9006618 Si02
#       5
#     2   2   2   2   2
#     4  10  21  38  67  92 123 167 222 275 330 395
#     4   9  22  41  58  93 129 167 217 270 336 396
#     4  11  25  42  68  96 136 178 221 276 337 404
#     4   9  21  45  63  94 134 174 220 278 338 402
#     4  11  25  46  69 103 137 180 229 281 342 408
#
# _framework density 24.328243000000001
#
# number of rings (size 3 to 8) (size 9 to 14) (size 15 to 20)
#    0.000    2.000    0.000    1.200    8.400    0.800 
#   18.000    0.000    0.000    0.000    0.000    0.000 
#    0.000    0.000    0.000    0.000    0.000    0.000 
#
# Total GULP energy -55673.013446 kJ/mol
# GULP energy per Si atom -5567.301345 kJ/mol
# Density = 2.427287 g / cm^3
# Si number density = 24.328243 Si / 1000 Ang^3
#
#
#
# Elastic Constant Matrix: (Units=GPa)
#
#
# Indices 1 2 3 4 5 6 
#
# 1 149.2523 60.0803 53.8444 -38.2206 25.7308 31.3034
# 2 60.0803 122.1999 49.5519 -35.3635 12.1461 13.1770
# 3 53.8444 49.5519 141.9698 -33.7356 26.0426 -4.1879
# 4 -38.2206 -35.3635 -33.7356 37.9801 -7.3947 -10.9594
# 5 25.7308 12.1461 26.0426 -7.3947 39.8714 -12.6285
# 6 31.3034 13.1770 -4.1879 -10.9594 -12.6285 47.0762
#
#
#
# Elastic Compliance Matrix: (Units=1/GPa)
#
#
# Indices 1 2 3 4 5 6 
#
# 1 0.012934 -0.002422 -0.001558 0.005062 -0.008560 -0.009179
# 2 -0.002422 0.012181 -0.001602 0.007492 0.000246 -0.000131
# 3 -0.001558 -0.001602 0.010389 0.006447 -0.003124 0.003071
# 4 0.005062 0.007492 0.006447 0.045986 0.000668 0.005995
# 5 -0.008560 0.000246 -0.003124 0.000668 0.037634 0.015596
# 6 -0.009179 -0.000131 0.003071 0.005995 0.015596 0.033235
#
#
# Mechanical properties :
#
#
# Convention : Reuss Voigt Hill
#
# Bulk Modulus (GPa) = 41.08186 82.26390 61.67288
# Shear Modulus (GPa) = 29.13109 41.64857 35.38983
#
# Velocity S-wave (km/s) = 3.46413 4.14205 3.81817
# Velocity P-wave (km/s) = 5.73789 7.53412 6.69651
#
# Compressibility (1/GPa) = 0.02434164
#
# Stress axis : x y z
#
# Youngs Moduli (GPa) = 77.31414 82.09171 96.25237
#
# Poissons Ratio (x) = 0.19882 0.14995
# Poissons Ratio (y) = 0.18725 0.15419
# Poissons Ratio (z) = 0.12044 0.13150
#
# Static dielectric constant tensor:
#      x y z
#    x 2.065170 0.138800 -0.282930 
#    y 0.138800 2.503760 -0.724500 
#    z -0.282930 -0.724500 2.783020 
# 
# From -- ./inp_files/371641.got.cif
#   From: 2010.05.17/outbox.cif.g08.bks.cpg/sg2_186_cif.got.tgz:371641.got - 2010.06.03 11:33:40.
