data_PCOD9006560
_publ_section_title
;
Structure prediction by ZEFSAII (Michael W. Deem and Ramdas Pophale) SiO2 
 PCOD9006560
Probable space group: P -1
;
_chemical_formula_sum "Si O2"
_cell_formula_units_Z 13
_cell_length_a 8.823741
_cell_length_b 11.277287
_cell_length_c 10.011104
_cell_angle_alpha 139.749711
_cell_angle_beta 100.867603
_cell_angle_gamma 69.821600
_cell_volume 599.551642
_symmetry_space_group_name_H-M "P -1"
_symmetry_group_IT_number 2
_symmetry_cell_setting 'triclinic'
loop_
_space_group_symop_operation_xyz
x,y,z
-x,-y,-z
loop_
_atom_site_type_symbol
_atom_site_label
_atom_site_fract_x
_atom_site_fract_y
_atom_site_fract_z
Si Si1 0.413964 0.178084 0.543793
Si Si2 0.113624 0.686961 0.099324
Si Si3 0.158824 0.543601 0.506894
Si Si4 0.156293 0.864821 0.984419
Si Si5 0.500000 0.500000 0.000000
Si Si6 0.390758 0.115914 0.198601
Si Si7 0.964173 0.684457 0.341235
O O1 0.477576 0.135007 0.367234
O O2 0.219111 0.215558 0.550661
O O3 0.500000 0.000000 0.500000
O O4 0.450808 0.363688 0.765476
O O5 0.302492 0.589170 0.085226
O O6 0.012090 0.770604 0.287420
O O7 0.115512 0.825694 0.095135
O O8 0.038092 0.529122 0.887737
O O9 0.213165 0.668307 0.736390
O O10 0.289331 0.333694 0.326098
O O11 0.000000 0.500000 0.500000
O O12 0.095252 0.659694 0.459712
O O13 0.282400 0.981616 0.103680
O O14 0.000000 0.000000 0.000000
O O15 0.500000 0.000000 0.000000
#
# Coordination Sequence:
#
# PCOD9006560 Si02
#       7
#     2   2   2   2   1   2   2
#     4  11  23  43  65  94 138 177 224 288 344 404
#     4  10  21  38  66  98 131 170 227 276 344 411
#     4  12  21  45  73  96 138 182 233 288 343 412
#     4  12  23  42  72  99 135 186 229 285 352 415
#     4  10  22  40  66  94 130 176 220 284 344 396
#     4  12  28  45  68 105 143 184 235 292 350 415
#     4  10  21  40  68  97 130 179 225 282 341 411
#
# _framework density 21.682867999999999
#
# number of rings (size 3 to 8) (size 9 to 14) (size 15 to 20)
#    0.000    0.923    4.615    1.846    0.000    8.000 
#    0.000    5.385    0.000    0.000    0.000    0.000 
#    0.000    0.000    0.000    0.000    0.000    0.000 
#
# Total GULP energy -72424.640197 kJ/mol
# GULP energy per Si atom -5571.126169 kJ/mol
# Density = 2.163352 g / cm^3
# Si number density = 21.682868 Si / 1000 Ang^3
#
#
#
# Elastic Constant Matrix: (Units=GPa)
#
#
# Indices 1 2 3 4 5 6 
#
# 1 43.1623 20.0362 48.9184 -13.0002 7.5191 12.9602
# 2 20.0362 104.5288 62.3572 -24.0453 -11.0375 8.1266
# 3 48.9184 62.3572 175.1245 -13.7687 -9.2071 5.6709
# 4 -13.0002 -24.0453 -13.7687 39.4915 5.0881 -5.2202
# 5 7.5191 -11.0375 -9.2071 5.0881 39.3945 -1.9112
# 6 12.9602 8.1266 5.6709 -5.2202 -1.9112 29.6672
#
#
#
# Elastic Compliance Matrix: (Units=1/GPa)
#
#
# Indices 1 2 3 4 5 6 
#
# 1 0.049510 0.001130 -0.013489 0.011765 -0.014690 -0.018236
# 2 0.001130 0.014006 -0.004612 0.006795 0.001649 -0.002147
# 3 -0.013489 -0.004612 0.010937 -0.003387 0.004507 0.004760
# 4 0.011765 0.006795 -0.003387 0.032723 -0.005406 -0.000944
# 5 -0.014690 0.001649 0.004507 -0.005406 0.030699 0.006131
# 6 -0.018236 -0.002147 0.004760 -0.000944 0.006131 0.041581
#
#
# Mechanical properties :
#
#
# Convention : Reuss Voigt Hill
#
# Bulk Modulus (GPa) = 24.68519 65.04882 44.86700
# Shear Modulus (GPa) = 22.03592 34.47755 28.25674
#
# Velocity S-wave (km/s) = 3.19138 3.99191 3.61388
# Velocity P-wave (km/s) = 4.99892 7.16326 6.17663
#
# Compressibility (1/GPa) = 0.04051012
#
# Stress axis : x y z
#
# Youngs Moduli (GPa) = 20.19786 71.39900 91.43281
#
# Poissons Ratio (x) = -0.08067 1.23334
# Poissons Ratio (y) = -0.02282 0.42171
# Poissons Ratio (z) = 0.27245 0.32931
#
# Static dielectric constant tensor:
#      x y z
#    x 1.771580 0.010200 -0.025190 
#    y 0.010200 1.820910 0.007430 
#    z -0.025190 0.007430 1.785860 
# 
# From -- ./inp_files/183572.got.cif
#   From: 2010.05.17/outbox.cif.g08.bks.cpg/sg2_92_cif.got.tgz:183572.got - 2010.06.03 11:33:40.
