data_PCOD9006374
_publ_section_title
;
Structure prediction by ZEFSAII (Michael W. Deem and Ramdas Pophale) SiO2 
 PCOD9006374
Probable space group: P -1
;
_chemical_formula_sum "Si O2"
_cell_formula_units_Z 12
_cell_length_a 14.792615
_cell_length_b 7.880476
_cell_length_c 7.328584
_cell_angle_alpha 55.666335
_cell_angle_beta 127.703728
_cell_angle_gamma 135.191640
_cell_volume 463.194141
_symmetry_space_group_name_H-M "P -1"
_symmetry_group_IT_number 2
_symmetry_cell_setting 'triclinic'
loop_
_space_group_symop_operation_xyz
x,y,z
-x,-y,-z
loop_
_atom_site_type_symbol
_atom_site_label
_atom_site_fract_x
_atom_site_fract_y
_atom_site_fract_z
Si Si1 0.160450 0.494728 0.135997
Si Si2 0.544596 0.191560 0.218011
Si Si3 0.265361 0.015889 0.131489
Si Si4 0.836373 0.665750 0.378944
Si Si5 0.963396 0.193194 0.775777
Si Si6 0.453236 0.666741 0.261116
O O1 0.124813 0.310754 0.374359
O O2 0.289766 0.527080 0.171315
O O3 0.208631 0.761522 0.108151
O O4 0.041003 0.403053 0.898158
O O5 0.429008 0.149277 0.242916
O O6 0.697963 0.389711 0.354987
O O7 0.518976 0.934418 0.272820
O O8 0.517452 0.296848 0.939041
O O9 0.212127 0.163422 0.866255
O O10 0.197206 0.948564 0.289771
O O11 0.961626 0.706070 0.385290
O O12 0.000000 0.000000 0.000000
O O13 0.500000 0.500000 0.500000
#
# Coordination Sequence:
#
# PCOD9006374 Si02
#       6
#     2   2   2   2   2   2
#     4  11  23  43  66  96 127 170 220 259 325 383
#     4  10  21  40  64  98 130 165 213 266 320 376
#     4  10  23  40  68  94 132 170 210 271 316 378
#     4  11  23  42  68  95 132 169 214 265 320 385
#     4  10  23  45  65  93 132 171 214 269 316 381
#     4  10  21  38  65  98 129 167 212 266 320 380
#
# _framework density 25.907062
#
# number of rings (size 3 to 8) (size 9 to 14) (size 15 to 20)
#    0.000    1.667    1.667    2.000    0.000    7.333 
#    0.000    0.000    0.000    0.000    0.000    0.000 
#    0.000    0.000    0.000    0.000    0.000    0.000 
#
# Total GULP energy -67306.005085 kJ/mol
# GULP energy per Si atom -5608.833757 kJ/mol
# Density = 2.584810 g / cm^3
# Si number density = 25.907062 Si / 1000 Ang^3
#
#
#
# Elastic Constant Matrix: (Units=GPa)
#
#
# Indices 1 2 3 4 5 6 
#
# 1 134.9369 52.5404 4.5825 2.6202 -2.6155 49.4199
# 2 52.5404 90.4288 34.1282 -15.3595 2.3351 9.5822
# 3 4.5825 34.1282 106.9510 -9.4280 -2.4981 -3.2437
# 4 2.6202 -15.3595 -9.4280 19.1677 -7.1266 2.9965
# 5 -2.6155 2.3351 -2.4981 -7.1266 52.8849 -11.2264
# 6 49.4199 9.5822 -3.2437 2.9965 -11.2264 48.8932
#
#
#
# Elastic Compliance Matrix: (Units=1/GPa)
#
#
# Indices 1 2 3 4 5 6 
#
# 1 0.017019 -0.010094 0.001200 -0.008568 -0.003063 -0.015323
# 2 -0.010094 0.020691 -0.004612 0.015453 0.001567 0.005254
# 3 0.001200 -0.004612 0.010981 0.001882 0.001156 0.000569
# 4 -0.008568 0.015453 0.001882 0.069476 0.009107 0.003590
# 5 -0.003063 0.001567 0.001156 0.009107 0.021508 0.007246
# 6 -0.015323 0.005254 0.000569 0.003590 0.007246 0.036393
#
#
# Mechanical properties :
#
#
# Convention : Reuss Voigt Hill
#
# Bulk Modulus (GPa) = 46.12613 57.20211 51.66412
# Shear Modulus (GPa) = 23.77487 40.26019 32.01753
#
# Velocity S-wave (km/s) = 3.03264 3.94639 3.51930
# Velocity P-wave (km/s) = 5.48686 6.54927 6.04147
#
# Compressibility (1/GPa) = 0.02167969
#
# Stress axis : x y z
#
# Youngs Moduli (GPa) = 58.75634 48.32971 91.07051
#
# Poissons Ratio (x) = 0.48784 -0.10930
# Poissons Ratio (y) = 0.59309 0.42001
# Poissons Ratio (z) = -0.07052 0.22289
#
# Static dielectric constant tensor:
#      x y z
#    x 2.032580 0.029610 0.010750 
#    y 0.029610 2.119250 -0.000440 
#    z 0.010750 -0.000440 2.001490 
# 
# From -- ./inp_files/165242.got.cif
#   From: 2010.05.17/outbox.cif.g08.bks.cpg/sg2_83_cif.got.tgz:165242.got - 2010.06.03 11:33:40.
