data_PCOD9006361
_publ_section_title
;
Structure prediction by ZEFSAII (Michael W. Deem and Ramdas Pophale) SiO2 
 PCOD9006361
Probable space group: P -1
;
_chemical_formula_sum "Si O2"
_cell_formula_units_Z 15
_cell_length_a 14.585837
_cell_length_b 8.172241
_cell_length_c 7.687669
_cell_angle_alpha 62.652452
_cell_angle_beta 77.525621
_cell_angle_gamma 120.677340
_cell_volume 565.437658
_symmetry_space_group_name_H-M "P -1"
_symmetry_group_IT_number 2
_symmetry_cell_setting 'triclinic'
loop_
_space_group_symop_operation_xyz
x,y,z
-x,-y,-z
loop_
_atom_site_type_symbol
_atom_site_label
_atom_site_fract_x
_atom_site_fract_y
_atom_site_fract_z
Si Si1 0.733685 0.848799 0.653459
Si Si2 0.859037 0.352574 0.204357
Si Si3 0.326489 0.610270 0.625809
Si Si4 0.500000 0.000000 0.000000
Si Si5 0.504373 0.817086 0.791920
Si Si6 0.829389 0.913976 0.957563
Si Si7 0.086510 0.190846 0.533836
Si Si8 0.770986 0.236907 0.917514
O O1 0.595348 0.767823 0.739493
O O2 0.754452 0.790055 0.862299
O O3 0.798438 0.802574 0.509025
O O4 0.829459 0.158307 0.452384
O O5 0.812781 0.478715 0.244203
O O6 0.765080 0.218609 0.138503
O O7 0.000000 0.500000 0.000000
O O8 0.416744 0.732352 0.701794
O O9 0.411946 0.870940 0.342647
O O10 0.273254 0.332982 0.753268
O O11 0.625243 0.043107 0.995481
O O12 0.433179 0.721897 0.050690
O O13 0.839067 0.141096 0.883858
O O14 0.978343 0.049267 0.799643
O O15 0.146591 0.472942 0.324457
O O16 0.000000 0.000000 0.500000
#
# Coordination Sequence:
#
# PCOD9006361 Si02
#       8
#     2   2   2   1   2   2   2   2
#     4  10  21  38  65  97 123 173 230 259 324 398
#     4  11  21  40  66  96 132 175 220 271 325 395
#     4  10  22  42  69  95 134 177 225 269 326 406
#     4  12  24  44  68 102 136 178 214 282 348 376
#     4  10  22  42  69  96 134 175 224 279 323 399
#     4  11  22  42  65 100 134 176 220 275 340 393
#     4  10  22  41  67  96 129 177 227 269 321 400
#     4  12  25  43  66 100 141 174 221 281 334 389
#
# _framework density 26.528123000000001
#
# number of rings (size 3 to 8) (size 9 to 14) (size 15 to 20)
#    0.000    1.333    2.667    4.400    0.000    1.600 
#    2.400    2.000    0.000    0.000    0.000    0.000 
#    0.000    0.000    0.000    0.000    0.000    0.000 
#
# Total GULP energy -83629.860877 kJ/mol
# GULP energy per Si atom -5575.324058 kJ/mol
# Density = 2.646774 g / cm^3
# Si number density = 26.528123 Si / 1000 Ang^3
#
#
#
# Elastic Constant Matrix: (Units=GPa)
#
#
# Indices 1 2 3 4 5 6 
#
# 1 150.1890 36.3549 38.3101 1.3258 -25.3760 -24.4215
# 2 36.3549 85.5939 32.6029 -5.7746 16.9840 7.1504
# 3 38.3101 32.6029 86.8061 -27.0744 0.5653 -0.2197
# 4 1.3258 -5.7746 -27.0744 39.7120 4.2647 18.7838
# 5 -25.3760 16.9840 0.5653 4.2647 41.8431 8.0233
# 6 -24.4215 7.1504 -0.2197 18.7838 8.0233 54.2343
#
#
#
# Elastic Compliance Matrix: (Units=1/GPa)
#
#
# Indices 1 2 3 4 5 6 
#
# 1 0.013546 -0.006660 -0.007270 -0.012023 0.010406 0.009573
# 2 -0.006660 0.018367 -0.002297 0.005147 -0.010914 -0.005598
# 3 -0.007270 -0.002297 0.021624 0.019333 -0.004016 -0.008985
# 4 -0.012023 0.005147 0.019333 0.051129 -0.010605 -0.022153
# 5 0.010406 -0.010914 -0.004016 -0.010605 0.034889 0.004620
# 6 0.009573 -0.005598 -0.008985 -0.022153 0.004620 0.030440
#
#
# Mechanical properties :
#
#
# Convention : Reuss Voigt Hill
#
# Bulk Modulus (GPa) = 47.43081 59.68055 53.55568
# Shear Modulus (GPa) = 23.86894 41.51262 32.69078
#
# Velocity S-wave (km/s) = 3.00285 3.96011 3.51423
# Velocity P-wave (km/s) = 5.47185 6.59211 6.05793
#
# Compressibility (1/GPa) = 0.02108334
#
# Stress axis : x y z
#
# Youngs Moduli (GPa) = 73.82368 54.44470 46.24406
#
# Poissons Ratio (x) = 0.36259 0.33620
# Poissons Ratio (y) = 0.49165 0.10622
# Poissons Ratio (z) = 0.53671 0.12506
#
# Static dielectric constant tensor:
#      x y z
#    x 2.123950 -0.075890 -0.062390 
#    y -0.075890 1.995200 -0.468140 
#    z -0.062390 -0.468140 1.165470 
# 
# From -- ./inp_files/297649.got.cif
#   From: 2010.05.17/outbox.cif.g08.bks.cpg/sg2_149_cif.got.tgz:297649.got - 2010.06.03 11:33:40.
