data_PCOD9006550
_publ_section_title
;
Structure prediction by ZEFSAII (Michael W. Deem and Ramdas Pophale) SiO2 
 PCOD9006550
Probable space group: P -1
;
_chemical_formula_sum "Si O2"
_cell_formula_units_Z 14
_cell_length_a 8.157514
_cell_length_b 13.249709
_cell_length_c 16.073915
_cell_angle_alpha 142.004170
_cell_angle_beta 149.797374
_cell_angle_gamma 48.898991
_cell_volume 536.453819
_symmetry_space_group_name_H-M "P -1"
_symmetry_group_IT_number 2
_symmetry_cell_setting 'triclinic'
loop_
_space_group_symop_operation_xyz
x,y,z
-x,-y,-z
loop_
_atom_site_type_symbol
_atom_site_label
_atom_site_fract_x
_atom_site_fract_y
_atom_site_fract_z
Si Si1 0.511496 0.957082 0.197392
Si Si2 0.697584 0.287838 0.412733
Si Si3 0.069206 0.143355 0.241788
Si Si4 0.493018 0.442523 0.596526
Si Si5 0.134263 0.316635 0.870828
Si Si6 0.452395 0.404305 0.830709
Si Si7 0.178624 0.894084 0.254744
O O1 0.653990 0.095595 0.286039
O O2 0.372728 0.050284 0.275331
O O3 0.762473 0.822067 0.239001
O O4 0.206712 0.864381 0.954623
O O5 0.518721 0.361531 0.462734
O O6 0.549990 0.367763 0.317953
O O7 0.076410 0.348246 0.617769
O O8 0.204698 0.328877 0.440120
O O9 0.980073 0.025216 0.203195
O O10 0.827988 0.407492 0.763951
O O11 0.031249 0.208049 0.834443
O O12 0.420750 0.461198 0.095517
O O13 0.673950 0.250962 0.827860
O O14 0.500000 0.500000 0.000000
O O15 0.500000 0.000000 0.500000
#
# Coordination Sequence:
#
# PCOD9006550 Si02
#       7
#     2   2   2   2   2   2   2
#     4  10  23  42  72 104 132 184 241 291 336 416
#     4  10  22  40  66 101 135 177 237 288 343 399
#     4  10  22  42  70  98 141 182 238 284 347 413
#     4  10  21  38  66  97 138 174 227 292 342 410
#     4  12  24  43  66 103 140 177 229 285 360 410
#     4  12  25  44  72 100 137 186 241 284 341 418
#     4  12  26  44  70 104 146 184 228 290 359 416
#
# _framework density 26.097306
#
# number of rings (size 3 to 8) (size 9 to 14) (size 15 to 20)
#    0.000    1.143    2.857    3.000    2.000    4.000 
#    0.000    0.714    0.000    0.000    0.000    0.000 
#    0.000    0.000    0.000    0.000    0.000    0.000 
#
# Total GULP energy -78474.763406 kJ/mol
# GULP energy per Si atom -5605.340243 kJ/mol
# Density = 2.603791 g / cm^3
# Si number density = 26.097306 Si / 1000 Ang^3
#
#
#
# Elastic Constant Matrix: (Units=GPa)
#
#
# Indices 1 2 3 4 5 6 
#
# 1 83.0065 29.0230 14.4722 15.5433 6.9006 10.7482
# 2 29.0230 151.7020 26.5587 25.9533 18.4122 19.4524
# 3 14.4722 26.5587 99.1849 24.9522 25.1367 4.1091
# 4 15.5433 25.9533 24.9522 43.9308 9.5120 3.0002
# 5 6.9006 18.4122 25.1367 9.5120 38.7663 18.5037
# 6 10.7482 19.4524 4.1091 3.0002 18.5037 38.2744
#
#
#
# Elastic Compliance Matrix: (Units=1/GPa)
#
#
# Indices 1 2 3 4 5 6 
#
# 1 0.013735 -0.001616 -0.000904 -0.003455 0.001339 -0.003315
# 2 -0.001616 0.008088 -0.000736 -0.003405 -0.000859 -0.002896
# 3 -0.000904 -0.000736 0.013915 -0.005458 -0.009053 0.003939
# 4 -0.003455 -0.003405 -0.005458 0.029491 -0.002509 0.002188
# 5 0.001339 -0.000859 -0.009053 -0.002509 0.041423 -0.018797
# 6 -0.003315 -0.002896 0.003939 0.002188 -0.018797 0.037023
#
#
# Mechanical properties :
#
#
# Convention : Reuss Voigt Hill
#
# Bulk Modulus (GPa) = 34.21522 52.66681 43.44102
# Shear Modulus (GPa) = 31.26401 41.78361 36.52381
#
# Velocity S-wave (km/s) = 3.46494 4.00568 3.74508
# Velocity P-wave (km/s) = 5.39878 6.45126 5.94834
#
# Compressibility (1/GPa) = 0.02922676
#
# Stress axis : x y z
#
# Youngs Moduli (GPa) = 72.80803 123.64233 71.86262
#
# Poissons Ratio (x) = 0.19977 0.06498
# Poissons Ratio (y) = 0.11764 0.05287
# Poissons Ratio (z) = 0.06584 0.09096
#
# Static dielectric constant tensor:
#      x y z
#    x 2.150000 0.027150 -0.010800 
#    y 0.027150 2.015570 0.015030 
#    z -0.010800 0.015030 2.000230 
# 
# From -- ./inp_files/157519.got.cif
#   From: 2010.05.17/outbox.cif.g08.bks.cpg/sg2_79_cif.got.tgz:157519.got - 2010.06.03 11:33:40.
