data_PCOD9006852
_publ_section_title
;
Structure prediction by ZEFSAII (Michael W. Deem and Ramdas Pophale) SiO2 
 PCOD9006852
Probable space group: P -1
;
_chemical_formula_sum "Si O2"
_cell_formula_units_Z 16
_cell_length_a 9.175897
_cell_length_b 11.165260
_cell_length_c 14.959070
_cell_angle_alpha 38.504159
_cell_angle_beta 76.404053
_cell_angle_gamma 49.902253
_cell_volume 602.311523
_symmetry_space_group_name_H-M "P -1"
_symmetry_group_IT_number 2
_symmetry_cell_setting 'triclinic'
loop_
_space_group_symop_operation_xyz
x,y,z
-x,-y,-z
loop_
_atom_site_type_symbol
_atom_site_label
_atom_site_fract_x
_atom_site_fract_y
_atom_site_fract_z
Si Si1 0.751718 0.401584 0.196557
Si Si2 0.785805 0.533395 0.668436
Si Si3 0.279780 0.975115 0.545290
Si Si4 0.563402 0.742696 0.195114
Si Si5 0.951926 0.852336 0.983821
Si Si6 0.141102 0.276551 0.205473
Si Si7 0.322718 0.802134 0.908927
Si Si8 0.347258 0.216234 0.646298
O O1 0.817965 0.116577 0.340221
O O2 0.735380 0.463155 0.268262
O O3 0.490331 0.681998 0.038476
O O4 0.924199 0.377511 0.136148
O O5 0.558271 0.682908 0.667785
O O6 0.996380 0.234353 0.867111
O O7 0.781123 0.766447 0.550589
O O8 0.748080 0.560374 0.551820
O O9 0.206812 0.072049 0.397303
O O10 0.677513 0.680065 0.310422
O O11 0.500000 0.000000 0.000000
O O12 0.318049 0.872031 0.161692
O O13 0.052839 0.559925 0.095404
O O14 0.104470 0.880092 0.911620
O O15 0.375792 0.065238 0.241915
O O16 0.500000 0.500000 0.000000
O O17 0.262960 0.077845 0.726324
#
# Coordination Sequence:
#
# PCOD9006852 Si02
#       8
#     2   2   2   2   2   2   2   2
#     4  12  23  41  65  95 137 174 222 264 329 400
#     4   9  19  41  69  97 129 166 220 283 331 378
#     4   9  18  37  66  99 126 167 219 277 330 382
#     4  12  26  45  63  93 141 185 214 256 338 410
#     4  11  22  42  70  99 130 178 218 272 339 387
#     4  10  21  38  70  97 130 170 220 275 333 381
#     4  12  23  36  68 102 131 163 232 283 321 379
#     4  11  23  43  66 101 134 172 220 276 326 392
#
# _framework density 26.564326999999999
#
# number of rings (size 3 to 8) (size 9 to 14) (size 15 to 20)
#    0.000    1.250    5.000    1.875    1.750    1.500 
#    0.000    3.125    0.000    0.000    0.000    0.000 
#    0.000    0.000    0.000    0.000    0.000    0.000 
#
# Total GULP energy -89693.709215 kJ/mol
# GULP energy per Si atom -5605.856826 kJ/mol
# Density = 2.650387 g / cm^3
# Si number density = 26.564327 Si / 1000 Ang^3
#
#
#
# Elastic Constant Matrix: (Units=GPa)
#
#
# Indices 1 2 3 4 5 6 
#
# 1 172.0821 57.2518 38.1270 5.1769 -26.6947 -33.5043
# 2 57.2518 102.0197 11.4656 5.2810 2.1517 -4.8113
# 3 38.1270 11.4656 94.1173 18.6893 -0.1558 6.0406
# 4 5.1769 5.2810 18.6893 41.7242 4.3370 10.0422
# 5 -26.6947 2.1517 -0.1558 4.3370 46.5171 5.2908
# 6 -33.5043 -4.8113 6.0406 10.0422 5.2908 54.8118
#
#
#
# Elastic Compliance Matrix: (Units=1/GPa)
#
#
# Indices 1 2 3 4 5 6 
#
# 1 0.010459 -0.005231 -0.003782 -0.000968 0.005641 0.005983
# 2 -0.005231 0.012664 0.000790 -0.000539 -0.003335 -0.001752
# 3 -0.003782 0.000790 0.013172 -0.004736 -0.001415 -0.002690
# 4 -0.000968 -0.000539 -0.004736 0.027735 -0.002569 -0.004950
# 5 0.005641 -0.003335 -0.001415 -0.002569 0.024968 0.001372
# 6 0.005983 -0.001752 -0.002690 -0.004950 0.001372 0.022819
#
#
# Mechanical properties :
#
#
# Convention : Reuss Voigt Hill
#
# Bulk Modulus (GPa) = 50.37941 64.65641 57.51791
# Shear Modulus (GPa) = 37.07059 46.03561 41.55310
#
# Velocity S-wave (km/s) = 3.73970 4.16743 3.95934
# Velocity P-wave (km/s) = 6.13623 6.89558 6.52696
#
# Compressibility (1/GPa) = 0.01984938
#
# Stress axis : x y z
#
# Youngs Moduli (GPa) = 95.61541 78.96206 75.92072
#
# Poissons Ratio (x) = 0.41304 0.28713
# Poissons Ratio (y) = 0.50015 -0.06000
# Poissons Ratio (z) = 0.36162 -0.06240
#
# Static dielectric constant tensor:
#      x y z
#    x 2.140180 0.004190 0.053340 
#    y 0.004190 2.090980 0.038540 
#    z 0.053340 0.038540 2.073070 
# 
# From -- ./inp_files/499871.got.cif
#   From: 2010.05.17/outbox.cif.g08.bks.cpg/sg2_250_cif.got.tgz:499871.got - 2010.06.03 11:33:40.
