data_PCOD9006943
_publ_section_title
;
Structure prediction by ZEFSAII (Michael W. Deem and Ramdas Pophale) SiO2 
 PCOD9006943
Probable space group: P -1
;
_chemical_formula_sum "Si O2"
_cell_formula_units_Z 14
_cell_length_a 10.938605
_cell_length_b 14.352105
_cell_length_c 13.411413
_cell_angle_alpha 28.365450
_cell_angle_beta 40.560794
_cell_angle_gamma 39.081251
_cell_volume 609.604100
_symmetry_space_group_name_H-M "P -1"
_symmetry_group_IT_number 2
_symmetry_cell_setting 'triclinic'
loop_
_space_group_symop_operation_xyz
x,y,z
-x,-y,-z
loop_
_atom_site_type_symbol
_atom_site_label
_atom_site_fract_x
_atom_site_fract_y
_atom_site_fract_z
Si Si1 0.977882 0.665641 0.753568
Si Si2 0.684374 0.101490 0.979264
Si Si3 0.406580 0.334914 0.757258
Si Si4 0.215011 0.653776 0.806578
Si Si5 0.933610 0.983478 0.303200
Si Si6 0.930143 0.355741 0.606863
Si Si7 0.580737 0.735543 0.393509
O O1 0.961458 0.844182 0.516511
O O2 0.174347 0.464355 0.795822
O O3 0.030341 0.736528 0.762930
O O4 0.796314 0.575192 0.947581
O O5 0.509612 0.243213 0.882844
O O6 0.785911 0.238231 0.852789
O O7 0.864589 0.997064 0.886545
O O8 0.626971 0.926060 0.237513
O O9 0.500000 0.500000 0.500000
O O10 0.457622 0.183464 0.772886
O O11 0.402170 0.681454 0.606033
O O12 0.194721 0.787598 0.793902
O O13 0.900296 0.826811 0.386691
O O14 0.777113 0.526649 0.467757
O O15 0.000000 0.500000 0.500000
#
# Coordination Sequence:
#
# PCOD9006943 Si02
#       7
#     2   2   2   2   2   2   2
#     4  11  21  37  57  86 134 167 193 234 303 369
#     4  10  22  36  65  88 118 156 205 252 299 357
#     4  12  17  37  60  91 121 161 200 243 297 364
#     4  11  24  34  57  91 128 162 192 241 305 369
#     4  10  21  39  57  87 118 156 202 249 299 349
#     4  10  23  43  66  88 114 159 214 257 297 350
#     4  12  22  39  62  90 124 157 201 250 301 366
#
# _framework density 22.965724000000002
#
# number of rings (size 3 to 8) (size 9 to 14) (size 15 to 20)
#    0.857    0.286    5.714    1.714    0.000    5.143 
#    0.000    0.714    0.000    1.714    0.000    0.000 
#    0.000    0.000    0.000    0.000    0.000    0.000 
#
# Total GULP energy -77976.124264 kJ/mol
# GULP energy per Si atom -5569.723162 kJ/mol
# Density = 2.291345 g / cm^3
# Si number density = 22.965724 Si / 1000 Ang^3
#
#
#
# Elastic Constant Matrix: (Units=GPa)
#
#
# Indices 1 2 3 4 5 6 
#
# 1 56.6991 26.3842 21.6506 -3.1832 -24.7048 25.1100
# 2 26.3842 95.6350 25.6758 2.5674 -19.2287 23.2488
# 3 21.6506 25.6758 137.9850 2.6191 -39.1108 6.3134
# 4 -3.1832 2.5674 2.6191 33.3444 8.5610 -9.5354
# 5 -24.7048 -19.2287 -39.1108 8.5610 29.0193 -14.2476
# 6 25.1100 23.2488 6.3134 -9.5354 -14.2476 25.4279
#
#
#
# Elastic Compliance Matrix: (Units=1/GPa)
#
#
# Indices 1 2 3 4 5 6 
#
# 1 0.041813 0.001633 0.002980 -0.012970 0.028645 -0.032337
# 2 0.001633 0.014970 -0.000923 -0.006366 0.004653 -0.014851
# 3 0.002980 -0.000923 0.014069 -0.005426 0.025857 0.006860
# 4 -0.012970 -0.006366 -0.005426 0.042233 -0.024071 0.022325
# 5 0.028645 0.004653 0.025857 -0.024071 0.110799 0.014095
# 6 -0.032337 -0.014851 0.006860 0.022325 0.014095 0.099403
#
#
# Mechanical properties :
#
#
# Convention : Reuss Voigt Hill
#
# Bulk Modulus (GPa) = 12.78222 48.63780 30.71001
# Shear Modulus (GPa) = 14.62057 31.99888 23.30973
#
# Velocity S-wave (km/s) = 2.52588 3.73679 3.18933
# Velocity P-wave (km/s) = 3.75295 6.31209 5.19265
#
# Compressibility (1/GPa) = 0.07823365
#
# Stress axis : x y z
#
# Youngs Moduli (GPa) = 23.91615 66.79906 71.07696
#
# Poissons Ratio (x) = -0.10908 -0.21184
# Poissons Ratio (y) = -0.03905 0.06559
# Poissons Ratio (z) = -0.07128 0.06164
#
# Static dielectric constant tensor:
#      x y z
#    x 2.012150 0.086350 -0.077180 
#    y 0.086350 1.968630 -0.063880 
#    z -0.077180 -0.063880 1.888180 
# 
# From -- ./inp_files/520609.got.cif
#   From: 2010.05.17/outbox.cif.g08.bks.cpg/sg2_261_cif.got.tgz:520609.got - 2010.06.03 11:33:40.
