data_PCOD9006390
_publ_section_title
;
Structure prediction by ZEFSAII (Michael W. Deem and Ramdas Pophale) SiO2 
 PCOD9006390
Probable space group: P -1
;
_chemical_formula_sum "Si O2"
_cell_formula_units_Z 14
_cell_length_a 10.922352
_cell_length_b 8.202821
_cell_length_c 26.335046
_cell_angle_alpha 148.239034
_cell_angle_beta 151.298955
_cell_angle_gamma 40.124823
_cell_volume 594.780254
_symmetry_space_group_name_H-M "P -1"
_symmetry_group_IT_number 2
_symmetry_cell_setting 'triclinic'
loop_
_space_group_symop_operation_xyz
x,y,z
-x,-y,-z
loop_
_atom_site_type_symbol
_atom_site_label
_atom_site_fract_x
_atom_site_fract_y
_atom_site_fract_z
Si Si1 0.738273 0.252734 0.538178
Si Si2 0.972038 0.492041 0.072785
Si Si3 0.358782 0.199129 0.056515
Si Si4 0.202182 0.573925 0.280419
Si Si5 0.247855 0.320687 0.675928
Si Si6 0.703626 0.445068 0.103095
Si Si7 0.463538 0.967518 0.206192
O O1 0.500000 0.500000 0.500000
O O2 0.733258 0.251624 0.598201
O O3 0.984303 0.358025 0.622314
O O4 0.757947 0.889856 0.432021
O O5 0.213099 0.313435 0.085338
O O6 0.064246 0.681061 0.205643
O O7 0.825433 0.689294 0.027347
O O8 0.777295 0.230575 0.947610
O O9 0.625060 0.356274 0.196918
O O10 0.386738 0.828142 0.967906
O O11 0.990079 0.353559 0.167098
O O12 0.430577 0.330163 0.282124
O O13 0.462937 0.108127 0.729424
O O14 0.697998 0.787845 0.214992
O O15 0.500000 0.500000 0.000000
#
# Coordination Sequence:
#
# PCOD9006390 Si02
#       7
#     2   2   2   2   2   2   2
#     4  11  23  43  68  94 128 180 231 274 320 380
#     4  10  21  38  65  98 139 174 204 266 337 396
#     4  10  23  43  64  99 144 171 210 269 335 397
#     4  12  22  40  66 100 131 172 225 273 318 391
#     4  10  23  42  65  97 128 177 228 266 327 393
#     4  12  23  39  66 104 134 173 212 265 341 401
#     4  11  20  37  63  98 133 166 213 262 327 395
#
# _framework density 23.538104000000001
#
# number of rings (size 3 to 8) (size 9 to 14) (size 15 to 20)
#    0.000    1.143    5.714    1.286    0.000    2.286 
#    2.571    0.714    0.000    1.714    0.000    0.000 
#    0.000    0.000    0.000    0.000    0.000    0.000 
#
# Total GULP energy -77989.510601 kJ/mol
# GULP energy per Si atom -5570.679329 kJ/mol
# Density = 2.348453 g / cm^3
# Si number density = 23.538104 Si / 1000 Ang^3
#
#
#
# Elastic Constant Matrix: (Units=GPa)
#
#
# Indices 1 2 3 4 5 6 
#
# 1 91.5921 25.1745 45.5191 -1.3206 -34.3578 -22.3970
# 2 25.1745 67.1473 24.9186 0.2572 -9.3806 -19.5206
# 3 45.5191 24.9186 80.8818 -8.3080 -34.1434 -7.8771
# 4 -1.3206 0.2572 -8.3080 22.8545 3.5622 -5.7922
# 5 -34.3578 -9.3806 -34.1434 3.5622 58.0748 -4.9021
# 6 -22.3970 -19.5206 -7.8771 -5.7922 -4.9021 29.9559
#
#
#
# Elastic Compliance Matrix: (Units=1/GPa)
#
#
# Indices 1 2 3 4 5 6 
#
# 1 0.022278 0.000573 -0.006173 0.001768 0.011016 0.017551
# 2 0.000573 0.020398 -0.004286 0.001253 0.002150 0.013188
# 3 -0.006173 -0.004286 0.021144 0.006333 0.007753 0.000645
# 4 0.001768 0.001253 0.006333 0.049161 0.003123 0.013820
# 5 0.011016 0.002150 0.007753 0.003123 0.029900 0.017173
# 6 0.017551 0.013188 0.000645 0.013820 0.017173 0.060751
#
#
# Mechanical properties :
#
#
# Convention : Reuss Voigt Hill
#
# Bulk Modulus (GPa) = 22.70237 47.87173 35.28705
# Shear Modulus (GPa) = 21.00078 31.77764 26.38921
#
# Velocity S-wave (km/s) = 2.99022 3.67829 3.35196
# Velocity P-wave (km/s) = 4.64626 6.19854 5.47767
#
# Compressibility (1/GPa) = 0.04404826
#
# Stress axis : x y z
#
# Youngs Moduli (GPa) = 44.88733 49.02505 47.29387
#
# Poissons Ratio (x) = -0.02810 0.29194
# Poissons Ratio (y) = -0.02572 0.20271
# Poissons Ratio (z) = 0.27709 0.21013
#
# Static dielectric constant tensor:
#      x y z
#    x 1.961570 -0.019170 -0.077510 
#    y -0.019170 1.875740 -0.022600 
#    z -0.077510 -0.022600 2.050820 
# 
# From -- ./inp_files/618239.got.cif
#   From: 2010.05.17/outbox.cif.g08.bks.cpg/sg2_310_cif.got.tgz:618239.got - 2010.06.03 11:33:40.
