data_PCOD9006069
_publ_section_title
;
Structure prediction by ZEFSAII (Michael W. Deem and Ramdas Pophale) SiO2 
 PCOD9006069
Probable space group: P -1
;
_chemical_formula_sum "Si O2"
_cell_formula_units_Z 16
_cell_length_a 10.006577
_cell_length_b 11.645674
_cell_length_c 13.795740
_cell_angle_alpha 147.042145
_cell_angle_beta 86.771240
_cell_angle_gamma 78.535951
_cell_volume 778.513116
_symmetry_space_group_name_H-M "P -1"
_symmetry_group_IT_number 2
_symmetry_cell_setting 'triclinic'
loop_
_space_group_symop_operation_xyz
x,y,z
-x,-y,-z
loop_
_atom_site_type_symbol
_atom_site_label
_atom_site_fract_x
_atom_site_fract_y
_atom_site_fract_z
Si Si1 0.836937 0.701009 0.676372
Si Si2 0.560928 0.568761 0.833002
Si Si3 0.867965 0.607026 0.827714
Si Si4 0.946808 0.942357 0.563482
Si Si5 0.390340 0.504726 0.426561
Si Si6 0.826488 0.957132 0.247461
Si Si7 0.333658 0.970808 0.258724
Si Si8 0.548089 0.081200 0.458760
O O1 0.845939 0.740479 0.819670
O O2 0.717300 0.599061 0.605325
O O3 0.777071 0.898376 0.734904
O O4 0.000000 0.500000 0.500000
O O5 0.723980 0.561405 0.824742
O O6 0.517939 0.646484 0.777500
O O7 0.555848 0.320933 0.657150
O O8 0.458722 0.734443 0.037929
O O9 0.000570 0.339724 0.628601
O O10 0.880617 0.768024 0.025745
O O11 0.036411 0.022920 0.693131
O O12 0.770324 0.065003 0.681287
O O13 0.000000 0.000000 0.500000
O O14 0.500000 0.500000 0.500000
O O15 0.284148 0.777515 0.596433
O O16 0.715610 0.909387 0.290975
O O17 0.425602 0.100430 0.395387
O O18 0.500000 0.000000 0.500000
#
# Coordination Sequence:
#
# PCOD9006069 Si02
#       8
#     2   2   2   2   2   2   2   2
#     4  11  21  42  64  94 139 171 208 269 327 390
#     4  10  23  41  65  99 131 167 221 265 326 384
#     4  11  23  43  70  94 133 179 212 263 337 392
#     4  12  26  47  67  93 136 174 217 275 329 389
#     4  10  21  38  64  94 133 169 211 263 320 391
#     4  11  22  44  64  96 129 176 219 259 335 390
#     4  12  25  41  68 104 130 170 224 273 324 386
#     4  11  23  42  68  96 131 172 225 279 318 378
#
# _framework density 20.551998000000001
#
# number of rings (size 3 to 8) (size 9 to 14) (size 15 to 20)
#    0.000    1.000    6.250    2.250    1.750    4.000 
#    2.250    1.250    0.000    0.000    0.000    0.000 
#    0.000    0.000    0.000    0.000    0.000    0.000 
#
# Total GULP energy -89295.334016 kJ/mol
# GULP energy per Si atom -5580.958376 kJ/mol
# Density = 2.050522 g / cm^3
# Si number density = 20.551998 Si / 1000 Ang^3
#
#
#
# Elastic Constant Matrix: (Units=GPa)
#
#
# Indices 1 2 3 4 5 6 
#
# 1 65.5869 16.7223 32.8602 -23.2378 0.3357 5.7941
# 2 16.7223 67.0948 25.0607 -15.2283 8.6784 13.5208
# 3 32.8602 25.0607 100.0295 -36.5960 10.7241 -5.0168
# 4 -23.2378 -15.2283 -36.5960 21.8051 0.9095 -3.0268
# 5 0.3357 8.6784 10.7241 0.9095 35.6871 -13.1677
# 6 5.7941 13.5208 -5.0168 -3.0268 -13.1677 36.8067
#
#
#
# Elastic Compliance Matrix: (Units=1/GPa)
#
#
# Indices 1 2 3 4 5 6 
#
# 1 0.025419 0.000793 0.004628 0.035276 -0.003459 -0.001999
# 2 0.000793 0.021278 0.000823 0.016109 -0.009493 -0.009901
# 3 0.004628 0.000823 0.030802 0.058232 -0.009272 0.004639
# 4 0.035276 0.016109 0.058232 0.193958 -0.025472 0.003304
# 5 -0.003459 -0.009493 -0.009272 -0.025472 0.039224 0.014706
# 6 -0.001999 -0.009901 0.004639 0.003304 0.014706 0.037286
#
#
# Mechanical properties :
#
#
# Convention : Reuss Voigt Hill
#
# Bulk Modulus (GPa) = 11.11278 42.44417 26.77847
# Shear Modulus (GPa) = 13.68081 29.39765 21.53923
#
# Velocity S-wave (km/s) = 2.58285 3.78617 3.24085
# Velocity P-wave (km/s) = 3.78335 6.30955 5.20212
#
# Compressibility (1/GPa) = 0.08998652
#
# Stress axis : x y z
#
# Youngs Moduli (GPa) = 39.34041 46.99615 32.46563
#
# Poissons Ratio (x) = -0.03727 -0.15024
# Poissons Ratio (y) = -0.03120 -0.02672
# Poissons Ratio (z) = -0.18205 -0.03868
#
# Static dielectric constant tensor:
#      x y z
#    x 1.704110 0.003030 -0.009900 
#    y 0.003030 1.812060 -0.012690 
#    z -0.009900 -0.012690 1.705680 
# 
# From -- ./inp_files/188020.got.cif
#   From: 2010.05.17/outbox.cif.g08.bks.cpg/sg2_95_cif.got.tgz:188020.got - 2010.06.03 11:33:40.
