data_PCOD9006220
_publ_section_title
;
Structure prediction by ZEFSAII (Michael W. Deem and Ramdas Pophale) SiO2 
 PCOD9006220
Probable space group: P -1
;
_chemical_formula_sum "Si O2"
_cell_formula_units_Z 14
_cell_length_a 20.913058
_cell_length_b 11.086395
_cell_length_c 7.251402
_cell_angle_alpha 100.649763
_cell_angle_beta 52.207292
_cell_angle_gamma 145.766934
_cell_volume 515.594310
_symmetry_space_group_name_H-M "P -1"
_symmetry_group_IT_number 2
_symmetry_cell_setting 'triclinic'
loop_
_space_group_symop_operation_xyz
x,y,z
-x,-y,-z
loop_
_atom_site_type_symbol
_atom_site_label
_atom_site_fract_x
_atom_site_fract_y
_atom_site_fract_z
Si Si1 0.295416 0.979153 0.589864
Si Si2 0.808080 0.976117 0.713446
Si Si3 0.342140 0.680526 0.438042
Si Si4 0.648860 0.291231 0.148669
Si Si5 0.921560 0.507297 0.389111
Si Si6 0.721660 0.650457 0.045439
Si Si7 0.340448 0.400998 0.432987
O O1 0.196065 0.783523 0.526969
O O2 0.425609 0.051950 0.480566
O O3 0.479849 0.329206 0.326896
O O4 0.120794 0.778549 0.979020
O O5 0.836345 0.907331 0.793859
O O6 0.584545 0.720528 0.080721
O O7 0.783834 0.875864 0.533342
O O8 0.988513 0.324922 0.526907
O O9 0.276145 0.613836 0.748123
O O10 0.314974 0.498251 0.409303
O O11 0.218384 0.583165 0.479674
O O12 0.575787 0.060308 0.127560
O O13 0.766483 0.567586 0.921579
O O14 0.734167 0.693957 0.252426
#
# Coordination Sequence:
#
# PCOD9006220 Si02
#       7
#     2   2   2   2   2   2   2
#     4   8  16  30  54  77 100 133 182 205 256 302
#     4  11  21  34  56  77 104 137 182 204 256 307
#     4   9  15  29  50  77 107 131 170 212 262 297
#     4   7  14  29  52  74  98 136 169 208 249 310
#     4  10  17  28  52  84 100 135 170 218 256 307
#     4   9  17  36  59  75  99 136 179 215 244 308
#     4  10  21  34  52  79 103 145 170 208 252 324
#
# _framework density 27.153130999999998
#
# number of rings (size 3 to 8) (size 9 to 14) (size 15 to 20)
#    0.857    2.000    1.429    0.429    0.000    0.571 
#    0.000    3.571    0.000    5.143    0.000    0.000 
#    0.000    0.000    0.000    0.000    0.000    0.000 
#
# Total GULP energy -78366.267869 kJ/mol
# GULP energy per Si atom -5597.590562 kJ/mol
# Density = 2.709133 g / cm^3
# Si number density = 27.153131 Si / 1000 Ang^3
#
#
#
# Elastic Constant Matrix: (Units=GPa)
#
#
# Indices 1 2 3 4 5 6 
#
# 1 87.9214 16.6821 12.5338 4.8066 7.3126 12.1866
# 2 16.6821 177.6049 26.0939 13.7769 -6.1620 37.0414
# 3 12.5338 26.0939 84.2091 -5.5681 7.4308 8.4752
# 4 4.8066 13.7769 -5.5681 37.2656 0.7479 -2.0334
# 5 7.3126 -6.1620 7.4308 0.7479 8.4043 4.4842
# 6 12.1866 37.0414 8.4752 -2.0334 4.4842 39.3850
#
#
#
# Elastic Compliance Matrix: (Units=1/GPa)
#
#
# Indices 1 2 3 4 5 6 
#
# 1 0.012822 -0.001004 -0.000592 -0.001262 -0.010304 -0.001788
# 2 -0.001004 0.009167 -0.003456 -0.004628 0.016213 -0.009652
# 3 -0.000592 -0.003456 0.014511 0.003984 -0.016481 0.002393
# 4 -0.001262 -0.004628 0.003984 0.029918 -0.012113 0.006810
# 5 -0.010304 0.016213 -0.016481 -0.012113 0.170738 -0.028578
# 6 -0.001788 -0.009652 0.002393 0.006810 -0.028578 0.038112
#
#
# Mechanical properties :
#
#
# Convention : Reuss Voigt Hill
#
# Bulk Modulus (GPa) = 37.88406 51.15055 44.51731
# Shear Modulus (GPa) = 16.99685 36.63937 26.81811
#
# Velocity S-wave (km/s) = 2.50464 3.67735 3.14612
# Velocity P-wave (km/s) = 4.72722 6.07530 5.44315
#
# Compressibility (1/GPa) = 0.02639632
#
# Stress axis : x y z
#
# Youngs Moduli (GPa) = 77.98821 109.08479 68.91231
#
# Poissons Ratio (x) = 0.10955 0.04077
# Poissons Ratio (y) = 0.07832 0.23819
# Poissons Ratio (z) = 0.04614 0.37705
#
# Static dielectric constant tensor:
#      x y z
#    x 2.041780 -0.029330 -0.047820 
#    y -0.029330 2.156300 0.022150 
#    z -0.047820 0.022150 2.203450 
# 
# From -- ./inp_files/353120.got.cif
#   From: 2010.05.17/outbox.cif.g08.bks.cpg/sg2_177_cif.got.tgz:353120.got - 2010.06.03 11:33:40.
