data_PCOD9006555
_publ_section_title
;
Structure prediction by ZEFSAII (Michael W. Deem and Ramdas Pophale) SiO2 
 PCOD9006555
Probable space group: P -1
;
_chemical_formula_sum "Si O2"
_cell_formula_units_Z 16
_cell_length_a 11.597064
_cell_length_b 10.341130
_cell_length_c 9.196233
_cell_angle_alpha 135.753863
_cell_angle_beta 65.561476
_cell_angle_gamma 126.404699
_cell_volume 619.217751
_symmetry_space_group_name_H-M "P -1"
_symmetry_group_IT_number 2
_symmetry_cell_setting 'triclinic'
loop_
_space_group_symop_operation_xyz
x,y,z
-x,-y,-z
loop_
_atom_site_type_symbol
_atom_site_label
_atom_site_fract_x
_atom_site_fract_y
_atom_site_fract_z
Si Si1 0.168286 0.965165 0.773250
Si Si2 0.544668 0.311696 0.646576
Si Si3 0.463610 0.076818 0.811606
Si Si4 0.849504 0.723796 0.383511
Si Si5 0.873111 0.647287 0.775702
Si Si6 0.883629 0.496197 0.946101
Si Si7 0.185958 0.924512 0.407107
Si Si8 0.561032 0.426141 0.273300
O O1 0.289706 0.960502 0.806527
O O2 0.232405 0.991984 0.600200
O O3 0.151549 0.162815 0.996710
O O4 0.012354 0.762643 0.695759
O O5 0.516455 0.234492 0.768241
O O6 0.716235 0.469431 0.667182
O O7 0.500953 0.111209 0.401950
O O8 0.461977 0.438196 0.736431
O O9 0.771206 0.250705 0.806673
O O10 0.504865 0.202948 0.044041
O O11 0.792190 0.892584 0.568137
O O12 0.722610 0.499513 0.308148
O O13 0.852202 0.676085 0.171501
O O14 0.010183 0.812956 0.423153
O O15 0.923208 0.552071 0.805406
O O16 0.000000 0.500000 0.000000
O O17 0.500000 0.500000 0.500000
#
# Coordination Sequence:
#
# PCOD9006555 Si02
#       8
#     2   2   2   2   2   2   2   2
#     4  11  23  40  71 100 135 172 222 283 344 401
#     4  11  25  46  75 100 134 184 240 282 330 414
#     4  11  25  47  73 101 131 185 239 278 340 410
#     4  10  22  41  64  90 138 174 219 270 332 402
#     4  11  23  40  69 102 134 172 224 281 345 397
#     4  10  21  40  62  99 128 171 216 271 331 406
#     4  10  21  38  66  98 125 174 219 271 338 402
#     4  12  27  44  67 100 142 184 222 282 345 405
#
# _framework density 25.83905
#
# number of rings (size 3 to 8) (size 9 to 14) (size 15 to 20)
#    0.000    1.250    2.500    2.625    1.750    5.500 
#    2.250    0.000    0.000    0.000    0.000    0.000 
#    0.000    0.000    0.000    0.000    0.000    0.000 
#
# Total GULP energy -89270.737213 kJ/mol
# GULP energy per Si atom -5579.421076 kJ/mol
# Density = 2.578024 g / cm^3
# Si number density = 25.839050 Si / 1000 Ang^3
#
#
#
# Elastic Constant Matrix: (Units=GPa)
#
#
# Indices 1 2 3 4 5 6 
#
# 1 80.5165 15.0955 9.0713 7.2044 5.8637 6.7287
# 2 15.0955 69.7097 33.1562 25.2026 8.3369 17.6802
# 3 9.0713 33.1562 146.7267 21.2534 -5.8011 2.9740
# 4 7.2044 25.2026 21.2534 37.2134 5.2606 1.7599
# 5 5.8637 8.3369 -5.8011 5.2606 38.2818 16.8884
# 6 6.7287 17.6802 2.9740 1.7599 16.8884 53.7650
#
#
#
# Elastic Compliance Matrix: (Units=1/GPa)
#
#
# Indices 1 2 3 4 5 6 
#
# 1 0.013052 -0.002177 -0.000252 -0.000709 -0.001251 -0.000487
# 2 -0.002177 0.022537 -0.002997 -0.012764 -0.000445 -0.006415
# 3 -0.000252 -0.002997 0.008010 -0.002821 0.002320 -0.000063
# 4 -0.000709 -0.012764 -0.002821 0.037721 -0.004803 0.004716
# 5 -0.001251 -0.000445 0.002320 -0.004803 0.031664 -0.009614
# 6 -0.000487 -0.006415 -0.000063 0.004716 -0.009614 0.023639
#
#
# Mechanical properties :
#
#
# Convention : Reuss Voigt Hill
#
# Bulk Modulus (GPa) = 30.53746 45.73322 38.13534
# Shear Modulus (GPa) = 31.56786 41.82736 36.69761
#
# Velocity S-wave (km/s) = 3.49909 4.02775 3.77269
# Velocity P-wave (km/s) = 5.30743 6.27440 5.81106
#
# Compressibility (1/GPa) = 0.03274666
#
# Stress axis : x y z
#
# Youngs Moduli (GPa) = 76.61902 44.37181 124.84642
#
# Poissons Ratio (x) = 0.09660 0.03145
# Poissons Ratio (y) = 0.16681 0.37414
# Poissons Ratio (z) = 0.01930 0.13297
#
# Static dielectric constant tensor:
#      x y z
#    x 2.092170 0.087170 -0.050630 
#    y 0.087170 2.154460 0.039710 
#    z -0.050630 0.039710 2.019550 
# 
# From -- ./inp_files/263031.got.cif
#   From: 2010.05.17/outbox.cif.g08.bks.cpg/sg2_132_cif.got.tgz:263031.got - 2010.06.03 11:33:40.
