data_PCOD9006038
_publ_section_title
;
Structure prediction by ZEFSAII (Michael W. Deem and Ramdas Pophale) SiO2 
 PCOD9006038
Probable space group: P -1
;
_chemical_formula_sum "Si O2"
_cell_formula_units_Z 14
_cell_length_a 11.634908
_cell_length_b 9.475936
_cell_length_c 8.491819
_cell_angle_alpha 136.324390
_cell_angle_beta 112.856150
_cell_angle_gamma 73.628174
_cell_volume 595.776298
_symmetry_space_group_name_H-M "P -1"
_symmetry_group_IT_number 2
_symmetry_cell_setting 'triclinic'
loop_
_space_group_symop_operation_xyz
x,y,z
-x,-y,-z
loop_
_atom_site_type_symbol
_atom_site_label
_atom_site_fract_x
_atom_site_fract_y
_atom_site_fract_z
Si Si1 0.961980 0.281163 0.368673
Si Si2 0.174635 0.881922 0.575176
Si Si3 0.309640 0.830265 0.997763
Si Si4 0.713311 0.792643 0.893164
Si Si5 0.360610 0.377290 0.612974
Si Si6 0.199678 0.062864 0.399628
Si Si7 0.596202 0.408664 0.607421
O O1 0.926879 0.269532 0.526303
O O2 0.832641 0.218699 0.169502
O O3 0.000000 0.500000 0.500000
O O4 0.077036 0.126787 0.288241
O O5 0.156423 0.960691 0.453921
O O6 0.304905 0.755178 0.535448
O O7 0.182266 0.081261 0.854166
O O8 0.375670 0.616396 0.844468
O O9 0.290628 0.916948 0.231007
O O10 0.362459 0.010214 0.058753
O O11 0.720820 0.669060 0.629436
O O12 0.667065 0.620813 0.851301
O O13 0.502469 0.308725 0.601956
O O14 0.283265 0.267710 0.620039
O O15 0.500000 0.500000 0.500000
#
# Coordination Sequence:
#
# PCOD9006038 Si02
#       7
#     2   2   2   2   2   2   2
#     4  11  21  42  71  87 123 169 213 259 304 381
#     4  11  25  41  62  98 131 160 205 267 322 363
#     4  10  21  39  66  92 123 168 214 251 309 375
#     4   9  19  36  63  88 124 160 211 254 304 364
#     4  10  21  39  64  92 122 170 214 252 303 378
#     4  11  24  41  62  96 133 162 203 262 321 368
#     4  10  21  38  64  93 125 165 216 256 302 375
#
# _framework density 23.498750999999999
#
# number of rings (size 3 to 8) (size 9 to 14) (size 15 to 20)
#    0.000    1.714    1.429    4.286    2.000    8.000 
#    0.000    2.143    0.000    0.000    0.000    0.000 
#    0.000    0.000    0.000    0.000    0.000    0.000 
#
# Total GULP energy -77957.949911 kJ/mol
# GULP energy per Si atom -5568.424994 kJ/mol
# Density = 2.344527 g / cm^3
# Si number density = 23.498751 Si / 1000 Ang^3
#
#
#
# Elastic Constant Matrix: (Units=GPa)
#
#
# Indices 1 2 3 4 5 6 
#
# 1 98.9467 22.0396 -0.3674 9.7682 -8.8927 16.3297
# 2 22.0396 90.4115 23.1929 3.7749 -0.1381 21.5574
# 3 -0.3674 23.1929 64.8326 16.7569 -8.4608 2.6364
# 4 9.7682 3.7749 16.7569 21.3950 3.7355 -3.7197
# 5 -8.8927 -0.1381 -8.4608 3.7355 29.9190 10.1539
# 6 16.3297 21.5574 2.6364 -3.7197 10.1539 45.1519
#
#
#
# Elastic Compliance Matrix: (Units=1/GPa)
#
#
# Indices 1 2 3 4 5 6 
#
# 1 0.014386 -0.002671 0.006441 -0.014348 0.010543 -0.007857
# 2 -0.002671 0.014282 -0.005647 0.002385 -0.000882 -0.005129
# 3 0.006441 -0.005647 0.026577 -0.026554 0.015009 -0.006748
# 4 -0.014348 0.002385 -0.026554 0.081869 -0.028337 0.018718
# 5 0.010543 -0.000882 0.015009 -0.028337 0.050425 -0.017942
# 6 -0.007857 -0.005129 -0.006748 0.018718 -0.017942 0.033408
#
#
# Mechanical properties :
#
#
# Convention : Reuss Voigt Hill
#
# Bulk Modulus (GPa) = 19.42089 38.21343 28.81716
# Shear Modulus (GPa) = 20.67264 33.24822 26.96043
#
# Velocity S-wave (km/s) = 2.96925 3.76559 3.39088
# Velocity P-wave (km/s) = 4.47636 5.93324 5.25553
#
# Compressibility (1/GPa) = 0.05149094
#
# Stress axis : x y z
#
# Youngs Moduli (GPa) = 69.51312 70.01764 37.62586
#
# Poissons Ratio (x) = 0.18698 -0.24233
# Poissons Ratio (y) = 0.18564 0.21248
# Poissons Ratio (z) = -0.44771 0.39541
#
# Static dielectric constant tensor:
#      x y z
#    x 1.959320 0.053090 0.007070 
#    y 0.053090 1.978850 -0.023670 
#    z 0.007070 -0.023670 1.946210 
# 
# From -- ./inp_files/246270.got.cif
#   From: 2010.05.17/outbox.cif.g08.bks.cpg/sg2_124_cif.got.tgz:246270.got - 2010.06.03 11:33:40.
