data_PCOD9006014
_publ_section_title
;
Structure prediction by ZEFSAII (Michael W. Deem and Ramdas Pophale) SiO2 
 PCOD9006014
Probable space group: P -1
;
_chemical_formula_sum "Si O2"
_cell_formula_units_Z 16
_cell_length_a 15.595694
_cell_length_b 6.837556
_cell_length_c 13.748491
_cell_angle_alpha 92.811256
_cell_angle_beta 30.760988
_cell_angle_gamma 76.814541
_cell_volume 635.554970
_symmetry_space_group_name_H-M "P -1"
_symmetry_group_IT_number 2
_symmetry_cell_setting 'triclinic'
loop_
_space_group_symop_operation_xyz
x,y,z
-x,-y,-z
loop_
_atom_site_type_symbol
_atom_site_label
_atom_site_fract_x
_atom_site_fract_y
_atom_site_fract_z
Si Si1 0.203760 0.306859 0.745040
Si Si2 0.784836 0.024189 0.135789
Si Si3 0.632090 0.854275 0.120071
Si Si4 0.613108 0.543272 0.277885
Si Si5 0.192804 0.636152 0.628055
Si Si6 0.971305 0.850897 0.666413
Si Si7 0.813095 0.302356 0.733271
Si Si8 0.522696 0.171244 0.910690
O O1 0.369623 0.324593 0.643486
O O2 0.195797 0.404163 0.648739
O O3 0.223031 0.071205 0.752713
O O4 0.000000 0.500000 0.000000
O O5 0.743471 0.276584 0.171943
O O6 0.628790 0.009426 0.216172
O O7 0.999938 0.842044 0.875914
O O8 0.794957 0.844322 0.889480
O O9 0.689909 0.619136 0.112946
O O10 0.448765 0.926034 0.229374
O O11 0.395383 0.606480 0.464795
O O12 0.156991 0.698582 0.551503
O O13 0.021349 0.743441 0.507648
O O14 0.907692 0.117788 0.723766
O O15 0.683756 0.217698 0.799766
O O16 0.671801 0.569638 0.900601
O O17 0.500000 0.000000 0.000000
#
# Coordination Sequence:
#
# PCOD9006014 Si02
#       8
#     2   2   2   2   2   2   2   2
#     4   9  20  41  62  95 130 161 209 262 303 375
#     4   9  22  41  64  89 130 165 205 260 313 369
#     4  10  22  38  60  92 125 158 209 258 307 369
#     4  11  22  40  67  91 126 172 204 256 317 369
#     4  10  21  38  64  92 126 162 213 256 307 376
#     4  10  21  43  59  89 129 164 208 266 311 379
#     4  10  23  40  64  87 126 166 208 262 320 375
#     4  11  22  39  63  92 120 164 212 258 317 379
#
# _framework density 25.174849999999999
#
# number of rings (size 3 to 8) (size 9 to 14) (size 15 to 20)
#    0.000    2.000    1.250    1.875    3.500    4.000 
#    0.000   11.250    0.000    0.000    0.000    0.000 
#    0.000    0.000    0.000    0.000    0.000    0.000 
#
# Total GULP energy -89523.043448 kJ/mol
# GULP energy per Si atom -5595.190215 kJ/mol
# Density = 2.511755 g / cm^3
# Si number density = 25.174850 Si / 1000 Ang^3
#
#
#
# Elastic Constant Matrix: (Units=GPa)
#
#
# Indices 1 2 3 4 5 6 
#
# 1 111.7324 48.6206 1.8509 -12.0481 -0.2460 -17.9459
# 2 48.6206 182.5437 57.3200 -21.0541 24.5198 -31.5755
# 3 1.8509 57.3200 70.4581 -0.9784 2.9918 -16.9639
# 4 -12.0481 -21.0541 -0.9784 45.5058 -14.1444 7.3332
# 5 -0.2460 24.5198 2.9918 -14.1444 28.7030 -6.0128
# 6 -17.9459 -31.5755 -16.9639 7.3332 -6.0128 48.6589
#
#
#
# Elastic Compliance Matrix: (Units=1/GPa)
#
#
# Indices 1 2 3 4 5 6 
#
# 1 0.011386 -0.004003 0.003526 0.002267 0.004916 0.003097
# 2 -0.004003 0.010266 -0.007565 0.001053 -0.007182 0.001502
# 3 0.003526 -0.007565 0.021134 -0.001434 0.004533 0.004536
# 4 0.002267 0.001053 -0.001434 0.027105 0.012303 -0.001545
# 5 0.004916 -0.007182 0.004533 0.012303 0.047174 0.002708
# 6 0.003097 0.001502 0.004536 -0.001545 0.002708 0.024816
#
#
# Mechanical properties :
#
#
# Convention : Reuss Voigt Hill
#
# Bulk Modulus (GPa) = 37.45129 64.47967 50.96548
# Shear Modulus (GPa) = 29.96396 41.70305 35.83351
#
# Velocity S-wave (km/s) = 3.45372 4.07447 3.77687
# Velocity P-wave (km/s) = 5.55095 6.91400 6.26963
#
# Compressibility (1/GPa) = 0.02670135
#
# Stress axis : x y z
#
# Youngs Moduli (GPa) = 87.82636 97.41139 47.31630
#
# Poissons Ratio (x) = 0.38993 -0.16682
# Poissons Ratio (y) = 0.35156 0.35796
# Poissons Ratio (z) = -0.30965 0.73694
#
# Static dielectric constant tensor:
#      x y z
#    x 2.050520 0.007850 -0.025250 
#    y 0.007850 1.952420 0.004500 
#    z -0.025250 0.004500 2.061680 
# 
# From -- ./inp_files/536299.got.cif
#   From: 2010.05.17/outbox.cif.g08.bks.cpg/sg2_269_cif.got.tgz:536299.got - 2010.06.03 11:33:40.
