data_PCOD9006287
_publ_section_title
;
Structure prediction by ZEFSAII (Michael W. Deem and Ramdas Pophale) SiO2 
 PCOD9006287
Probable space group: P -1
;
_chemical_formula_sum "Si O2"
_cell_formula_units_Z 14
_cell_length_a 9.241015
_cell_length_b 9.338060
_cell_length_c 14.989437
_cell_angle_alpha 113.593820
_cell_angle_beta 129.393268
_cell_angle_gamma 45.315408
_cell_volume 708.217461
_symmetry_space_group_name_H-M "P -1"
_symmetry_group_IT_number 2
_symmetry_cell_setting 'triclinic'
loop_
_space_group_symop_operation_xyz
x,y,z
-x,-y,-z
loop_
_atom_site_type_symbol
_atom_site_label
_atom_site_fract_x
_atom_site_fract_y
_atom_site_fract_z
Si Si1 0.999657 0.133312 0.152351
Si Si2 0.336218 0.685096 0.785938
Si Si3 0.229457 0.902519 0.627248
Si Si4 0.246505 0.301206 0.244173
Si Si5 0.582233 0.274979 0.886885
Si Si6 0.748274 0.723328 0.961137
Si Si7 0.803632 0.765573 0.186748
O O1 0.113571 0.243162 0.235702
O O2 0.898347 0.134161 0.207142
O O3 0.214171 0.916903 0.141798
O O4 0.759813 0.262400 0.026789
O O5 0.276475 0.731839 0.669889
O O6 0.433157 0.473970 0.815702
O O7 0.547409 0.697915 0.887282
O O8 0.482897 0.795993 0.648627
O O9 0.192548 0.078525 0.716297
O O10 0.000000 0.000000 0.500000
O O11 0.269562 0.208152 0.130531
O O12 0.065266 0.543177 0.231797
O O13 0.393838 0.254467 0.855649
O O14 0.746492 0.827742 0.075213
O O15 0.000000 0.500000 0.000000
#
# Coordination Sequence:
#
# PCOD9006287 Si02
#       7
#     2   2   2   2   2   2   2
#     4  11  21  35  62 100 132 158 194 243 315 391
#     4  11  22  39  62  90 130 159 199 257 310 366
#     4  11  27  46  62  87 119 166 227 267 295 353
#     4  10  21  38  65  93 128 158 203 254 311 375
#     4  11  21  34  63  99 133 159 192 240 318 390
#     4   9  19  33  58  96 127 157 193 237 308 384
#     4  11  20  39  67  89 128 166 199 250 320 368
#
# _framework density 19.767938999999998
#
# number of rings (size 3 to 8) (size 9 to 14) (size 15 to 20)
#    0.000    1.429    4.286    2.143    0.000    8.571 
#    0.000    1.429    0.000    0.000    0.000    0.000 
#    0.000    0.000    0.000    0.000    0.000    0.000 
#
# Total GULP energy -78109.061140 kJ/mol
# GULP energy per Si atom -5579.218653 kJ/mol
# Density = 1.972295 g / cm^3
# Si number density = 19.767939 Si / 1000 Ang^3
#
#
#
# Elastic Constant Matrix: (Units=GPa)
#
#
# Indices 1 2 3 4 5 6 
#
# 1 116.4292 25.3951 32.3418 -9.2502 16.8418 -16.1624
# 2 25.3951 104.2415 38.6802 -15.5294 8.0217 -12.5691
# 3 32.3418 38.6802 92.7121 -24.4455 19.8058 -12.6156
# 4 -9.2502 -15.5294 -24.4455 19.2843 -9.2512 1.4595
# 5 16.8418 8.0217 19.8058 -9.2512 19.0089 -10.2223
# 6 -16.1624 -12.5691 -12.6156 1.4595 -10.2223 29.1573
#
#
#
# Elastic Compliance Matrix: (Units=1/GPa)
#
#
# Indices 1 2 3 4 5 6 
#
# 1 0.010509 -0.001346 -0.001864 -0.001632 -0.006364 0.002289
# 2 -0.001346 0.012398 -0.003265 0.007517 0.005585 0.004767
# 3 -0.001864 -0.003265 0.019215 0.017127 -0.007343 0.002442
# 4 -0.001632 0.007517 0.017127 0.094797 0.036050 0.017640
# 5 -0.006364 0.005585 -0.007343 0.036050 0.095880 0.027513
# 6 0.002289 0.004767 0.002442 0.017640 0.027513 0.047440
#
#
# Mechanical properties :
#
#
# Convention : Reuss Voigt Hill
#
# Bulk Modulus (GPa) = 34.27883 56.24632 45.26257
# Shear Modulus (GPa) = 16.50645 27.95449 22.23047
#
# Velocity S-wave (km/s) = 2.89279 3.76458 3.35710
# Velocity P-wave (km/s) = 5.34190 6.88557 6.16227
#
# Compressibility (1/GPa) = 0.02917253
#
# Stress axis : x y z
#
# Youngs Moduli (GPa) = 95.15744 80.66137 52.04178
#
# Poissons Ratio (x) = 0.10857 0.09698
# Poissons Ratio (y) = 0.12808 0.16992
# Poissons Ratio (z) = 0.17733 0.26337
#
# Static dielectric constant tensor:
#      x y z
#    x 1.628060 -0.007180 0.105640 
#    y -0.007180 1.750120 0.003580 
#    z 0.105640 0.003580 1.468550 
# 
# From -- ./inp_files/179607.got.cif
#   From: 2010.05.17/outbox.cif.g08.bks.cpg/sg2_90_cif.got.tgz:179607.got - 2010.06.03 11:33:40.
