data_PCOD9006339
_publ_section_title
;
Structure prediction by ZEFSAII (Michael W. Deem and Ramdas Pophale) SiO2 
 PCOD9006339
Probable space group: P -1
;
_chemical_formula_sum "Si O2"
_cell_formula_units_Z 14
_cell_length_a 19.037673
_cell_length_b 7.998839
_cell_length_c 10.733499
_cell_angle_alpha 85.307171
_cell_angle_beta 32.080456
_cell_angle_gamma 65.205324
_cell_volume 648.990411
_symmetry_space_group_name_H-M "P -1"
_symmetry_group_IT_number 2
_symmetry_cell_setting 'triclinic'
loop_
_space_group_symop_operation_xyz
x,y,z
-x,-y,-z
loop_
_atom_site_type_symbol
_atom_site_label
_atom_site_fract_x
_atom_site_fract_y
_atom_site_fract_z
Si Si1 0.994032 0.671543 0.825876
Si Si2 0.422601 0.105849 0.975060
Si Si3 0.194260 0.177076 0.631094
Si Si4 0.131543 0.552201 0.294331
Si Si5 0.314608 0.638977 0.841942
Si Si6 0.797591 0.957566 0.863491
Si Si7 0.964811 0.012883 0.197702
O O1 0.113808 0.406068 0.667381
O O2 0.854469 0.805758 0.913696
O O3 0.101731 0.756811 0.659420
O O4 0.897843 0.752764 0.099787
O O5 0.599742 0.995518 0.640531
O O6 0.284173 0.374359 0.171867
O O7 0.322437 0.044527 0.052650
O O8 0.500000 0.000000 0.000000
O O9 0.153551 0.052275 0.611573
O O10 0.000000 0.500000 0.500000
O O11 0.990770 0.815110 0.519284
O O12 0.248448 0.515253 0.003559
O O13 0.500000 0.500000 0.500000
O O14 0.156047 0.821262 0.978561
O O15 0.300431 0.791534 0.962264
O O16 0.000000 0.000000 0.000000
#
# Coordination Sequence:
#
# PCOD9006339 Si02
#       7
#     2   2   2   2   2   2   2
#     4   9  20  39  63  95 130 175 227 274 358 412
#     4  11  25  41  65  96 134 178 243 278 344 411
#     4  10  21  38  65  95 133 179 221 291 339 412
#     4  10  24  45  67  95 137 187 225 278 352 420
#     4  11  25  43  72 103 135 178 237 289 338 416
#     4  10  23  44  67  95 138 179 229 281 353 415
#     4   9  21  38  62  94 135 172 215 278 354 399
#
# _framework density 21.571967000000001
#
# number of rings (size 3 to 8) (size 9 to 14) (size 15 to 20)
#    0.000    2.000    0.000    1.286   14.000    4.000 
#    0.000    0.714    0.000    0.000    0.000    0.000 
#    0.000    0.000    0.000    0.000    0.000    0.000 
#
# Total GULP energy -77986.842955 kJ/mol
# GULP energy per Si atom -5570.488783 kJ/mol
# Density = 2.152287 g / cm^3
# Si number density = 21.571967 Si / 1000 Ang^3
#
#
#
# Elastic Constant Matrix: (Units=GPa)
#
#
# Indices 1 2 3 4 5 6 
#
# 1 118.1522 46.9733 21.5883 -2.9638 -17.2865 7.2799
# 2 46.9733 107.4752 43.0590 -6.0579 -14.4781 17.3868
# 3 21.5883 43.0590 133.7590 -2.3875 -9.0204 16.4739
# 4 -2.9638 -6.0579 -2.3875 25.2384 -8.8364 4.0878
# 5 -17.2865 -14.4781 -9.0204 -8.8364 31.7653 3.6346
# 6 7.2799 17.3868 16.4739 4.0878 3.6346 35.3315
#
#
#
# Elastic Compliance Matrix: (Units=1/GPa)
#
#
# Indices 1 2 3 4 5 6 
#
# 1 0.010802 -0.003730 -0.000027 0.002286 0.004938 -0.001150
# 2 -0.003730 0.014151 -0.002678 0.005812 0.005990 -0.006235
# 3 -0.000027 -0.002678 0.008902 0.001436 0.002059 -0.003205
# 4 0.002286 0.005812 0.001436 0.050207 0.019621 -0.011828
# 5 0.004938 0.005990 0.002059 0.019621 0.044285 -0.011751
# 6 -0.001150 -0.006235 -0.003205 -0.011828 -0.011751 0.035680
#
#
# Mechanical properties :
#
#
# Convention : Reuss Voigt Hill
#
# Bulk Modulus (GPa) = 47.65438 64.73641 56.19539
# Shear Modulus (GPa) = 27.18979 34.98476 31.08727
#
# Velocity S-wave (km/s) = 3.55409 4.03149 3.80030
# Velocity P-wave (km/s) = 6.24347 7.19341 6.73521
#
# Compressibility (1/GPa) = 0.02098443
#
# Stress axis : x y z
#
# Youngs Moduli (GPa) = 92.57256 70.66728 112.33753
#
# Poissons Ratio (x) = 0.26361 0.00306
# Poissons Ratio (y) = 0.34533 0.30081
# Poissons Ratio (z) = 0.00252 0.18923
#
# Static dielectric constant tensor:
#      x y z
#    x 1.831440 0.062210 0.053060 
#    y 0.062210 1.992670 -0.154050 
#    z 0.053060 -0.154050 1.934330 
# 
# From -- ./inp_files/468890.got.cif
#   From: 2010.05.17/outbox.cif.g08.bks.cpg/sg2_235_cif.got.tgz:468890.got - 2010.06.03 11:33:40.
