data_PCOD9006838
_publ_section_title
;
Structure prediction by ZEFSAII (Michael W. Deem and Ramdas Pophale) SiO2 
 PCOD9006838
Probable space group: P -1
;
_chemical_formula_sum "Si O2"
_cell_formula_units_Z 12
_cell_length_a 7.671678
_cell_length_b 4.915683
_cell_length_c 22.244108
_cell_angle_alpha 64.669485
_cell_angle_beta 41.776282
_cell_angle_gamma 83.242428
_cell_volume 476.047386
_symmetry_space_group_name_H-M "P -1"
_symmetry_group_IT_number 2
_symmetry_cell_setting 'triclinic'
loop_
_space_group_symop_operation_xyz
x,y,z
-x,-y,-z
loop_
_atom_site_type_symbol
_atom_site_label
_atom_site_fract_x
_atom_site_fract_y
_atom_site_fract_z
Si Si1 0.661647 0.196474 0.747058
Si Si2 0.544104 0.700886 0.656388
Si Si3 0.954889 0.803537 0.450317
Si Si4 0.007160 0.218179 0.163769
Si Si5 0.714601 0.292018 0.857394
Si Si6 0.213917 0.816129 0.976085
O O1 0.506491 0.349097 0.724350
O O2 0.942596 0.188159 0.644856
O O3 0.737405 0.390256 0.771786
O O4 0.427118 0.871772 0.860205
O O5 0.289811 0.809310 0.730055
O O6 0.646232 0.768998 0.554774
O O7 0.815717 0.898622 0.606039
O O8 0.000000 0.500000 0.500000
O O9 0.226019 0.422452 0.138469
O O10 0.062161 0.888555 0.172647
O O11 0.071339 0.455443 0.067793
O O12 0.412234 0.018915 0.959415
O O13 0.000000 0.000000 0.000000
#
# Coordination Sequence:
#
# PCOD9006838 Si02
#       6
#     2   2   2   2   2   2
#     4   9  21  39  64  92 125 170 216 261 313 379
#     4  10  21  38  70  89 125 169 220 269 313 383
#     4   9  20  40  64  92 122 162 227 270 316 363
#     4  12  23  44  62 102 132 174 205 263 331 378
#     4  10  26  40  65  93 143 167 209 260 327 382
#     4  10  21  42  65  97 128 173 217 261 309 389
#
# _framework density 25.207577000000001
#
# number of rings (size 3 to 8) (size 9 to 14) (size 15 to 20)
#    1.000    1.000    1.667    1.000    7.000    0.000 
#    3.000    4.167    0.000    0.000    0.000    0.000 
#    0.000    0.000    0.000    0.000    0.000    0.000 
#
# Total GULP energy -67088.560870 kJ/mol
# GULP energy per Si atom -5590.713406 kJ/mol
# Density = 2.515020 g / cm^3
# Si number density = 25.207577 Si / 1000 Ang^3
#
#
#
# Elastic Constant Matrix: (Units=GPa)
#
#
# Indices 1 2 3 4 5 6 
#
# 1 75.9382 19.5567 27.1412 -5.0257 -1.7260 -16.3674
# 2 19.5567 77.8308 26.3822 14.6538 4.1698 -11.4861
# 3 27.1412 26.3822 172.9149 35.3309 8.7523 -19.9651
# 4 -5.0257 14.6538 35.3309 30.1627 3.7274 -7.8746
# 5 -1.7260 4.1698 8.7523 3.7274 27.0307 14.0078
# 6 -16.3674 -11.4861 -19.9651 -7.8746 14.0078 48.4607
#
#
#
# Elastic Compliance Matrix: (Units=1/GPa)
#
#
# Indices 1 2 3 4 5 6 
#
# 1 0.017439 -0.004308 -0.003574 0.010818 -0.001444 0.005572
# 2 -0.004308 0.015745 0.000220 -0.007807 -0.002668 0.001870
# 3 -0.003574 0.000220 0.008686 -0.010193 -0.002431 0.001470
# 4 0.010818 -0.007807 -0.010193 0.053618 -0.006436 0.008177
# 5 -0.001444 -0.002668 -0.002431 -0.006436 0.047789 -0.016981
# 6 0.005572 0.001870 0.001470 0.008177 -0.016981 0.029803
#
#
# Mechanical properties :
#
#
# Convention : Reuss Voigt Hill
#
# Bulk Modulus (GPa) = 37.66941 52.53824 45.10383
# Shear Modulus (GPa) = 25.34820 38.03774 31.69297
#
# Velocity S-wave (km/s) = 3.17453 3.88877 3.54966
# Velocity P-wave (km/s) = 5.33038 6.40710 5.89338
#
# Compressibility (1/GPa) = 0.02654674
#
# Stress axis : x y z
#
# Youngs Moduli (GPa) = 57.34116 63.51232 115.12818
#
# Poissons Ratio (x) = 0.27359 0.41148
# Poissons Ratio (y) = 0.24701 -0.02532
# Poissons Ratio (z) = 0.20494 -0.01397
#
# Static dielectric constant tensor:
#      x y z
#    x 2.017000 0.025130 0.033430 
#    y 0.025130 2.128160 -0.043770 
#    z 0.033430 -0.043770 2.108880 
# 
# From -- ./inp_files/46126.got.cif
#   From: 2010.05.17/outbox.cif.g08.bks.cpg/sg2_24_cif.got.tgz:46126.got - 2010.06.03 11:33:40.
