data_PCOD9006195
_publ_section_title
;
Structure prediction by ZEFSAII (Michael W. Deem and Ramdas Pophale) SiO2 
 PCOD9006195
Probable space group: P -1
;
_chemical_formula_sum "Si O2"
_cell_formula_units_Z 16
_cell_length_a 14.973728
_cell_length_b 15.340208
_cell_length_c 15.681444
_cell_angle_alpha 41.178927
_cell_angle_beta 40.292289
_cell_angle_gamma 19.413311
_cell_volume 764.912329
_symmetry_space_group_name_H-M "P -1"
_symmetry_group_IT_number 2
_symmetry_cell_setting 'triclinic'
loop_
_space_group_symop_operation_xyz
x,y,z
-x,-y,-z
loop_
_atom_site_type_symbol
_atom_site_label
_atom_site_fract_x
_atom_site_fract_y
_atom_site_fract_z
Si Si1 0.247801 0.048704 0.220924
Si Si2 0.338707 0.498503 0.596215
Si Si3 0.473424 0.151922 0.003476
Si Si4 0.682422 0.193203 0.178127
Si Si5 0.855529 0.312873 0.906649
Si Si6 0.576939 0.043380 0.487274
Si Si7 0.989809 0.616157 0.122672
Si Si8 0.112856 0.539569 0.582420
O O1 0.306179 0.158151 0.093567
O O2 0.933999 0.282550 0.305690
O O3 0.451964 0.798003 0.319337
O O4 0.358973 0.916510 0.143552
O O5 0.500000 0.500000 0.500000
O O6 0.239578 0.562021 0.522812
O O7 0.240271 0.434048 0.009578
O O8 0.702930 0.907802 0.081221
O O9 0.409567 0.436737 0.141211
O O10 0.622784 0.147658 0.332946
O O11 0.790991 0.252095 0.067785
O O12 0.909326 0.934319 0.144896
O O13 0.947263 0.365501 0.848778
O O14 0.855887 0.776146 0.532203
O O15 0.500000 0.000000 0.500000
O O16 0.337032 0.268795 0.565218
O O17 0.983207 0.468137 0.261169
#
# Coordination Sequence:
#
# PCOD9006195 Si02
#       8
#     2   2   2   2   2   2   2   2
#     4  11  22  44  65  95 124 167 216 268 332 375
#     4  12  25  46  68  92 135 184 219 262 324 394
#     4  11  22  38  68  92 129 155 208 284 323 369
#     4  10  21  41  59  87 125 166 207 255 323 390
#     4  10  21  38  65  86 121 166 205 259 327 386
#     4  12  24  41  65  97 131 170 213 269 324 378
#     4  12  21  39  62  97 124 161 216 269 325 380
#     4  12  24  41  65  94 130 170 222 264 314 393
#
# _framework density 20.91743
#
# number of rings (size 3 to 8) (size 9 to 14) (size 15 to 20)
#    0.000    0.750    2.500    6.000    0.000    2.000 
#    6.750    0.000    0.000    0.000    0.000    0.000 
#    0.000    0.000    0.000    0.000    0.000    0.000 
#
# Total GULP energy -89352.349876 kJ/mol
# GULP energy per Si atom -5584.521867 kJ/mol
# Density = 2.086982 g / cm^3
# Si number density = 20.917430 Si / 1000 Ang^3
#
#
#
# Elastic Constant Matrix: (Units=GPa)
#
#
# Indices 1 2 3 4 5 6 
#
# 1 102.3960 41.0093 36.3221 -8.2069 16.1805 -5.0375
# 2 41.0093 159.2807 66.1518 -20.8204 47.8962 -7.5217
# 3 36.3221 66.1518 162.7246 -58.4328 94.9526 -2.6984
# 4 -8.2069 -20.8204 -58.4328 98.1797 -79.3143 5.8858
# 5 16.1805 47.8962 94.9526 -79.3143 121.7816 1.9499
# 6 -5.0375 -7.5217 -2.6984 5.8858 1.9499 30.0012
#
#
#
# Elastic Compliance Matrix: (Units=1/GPa)
#
#
# Indices 1 2 3 4 5 6 
#
# 1 0.011349 -0.002272 -0.002242 -0.000064 0.001075 0.001077
# 2 -0.002272 0.008342 -0.001929 -0.001927 -0.002764 0.002094
# 3 -0.002242 -0.001929 0.012567 -0.000527 -0.009100 0.000965
# 4 -0.000064 -0.001927 -0.000527 0.022902 0.016190 -0.006087
# 5 0.001075 -0.002764 -0.009100 0.016190 0.026896 -0.006255
# 6 0.001077 0.002094 0.000965 -0.006087 -0.006255 0.035725
#
#
# Mechanical properties :
#
#
# Convention : Reuss Voigt Hill
#
# Bulk Modulus (GPa) = 51.61633 79.04084 65.32859
# Shear Modulus (GPa) = 36.46330 68.72039 52.59184
#
# Velocity S-wave (km/s) = 4.17970 5.73799 5.01968
# Velocity P-wave (km/s) = 6.92986 9.04259 8.05579
#
# Compressibility (1/GPa) = 0.01937371
#
# Stress axis : x y z
#
# Youngs Moduli (GPa) = 88.11290 119.87195 79.57307
#
# Poissons Ratio (x) = 0.27229 0.17841
# Poissons Ratio (y) = 0.20015 0.15348
# Poissons Ratio (z) = 0.19755 0.23121
#
# Static dielectric constant tensor:
#      x y z
#    x 1.746630 -0.037100 -0.039220 
#    y -0.037100 1.644480 -0.026100 
#    z -0.039220 -0.026100 1.764350 
# 
# From -- ./inp_files/437291.got.cif
#   From: 2010.05.17/outbox.cif.g08.bks.cpg/sg2_219_cif.got.tgz:437291.got - 2010.06.03 11:33:40.
