data_PCOD9006792
_publ_section_title
;
Structure prediction by ZEFSAII (Michael W. Deem and Ramdas Pophale) SiO2 
 PCOD9006792
Probable space group: P -1
;
_chemical_formula_sum "Si O2"
_cell_formula_units_Z 15
_cell_length_a 10.152408
_cell_length_b 16.442608
_cell_length_c 9.327255
_cell_angle_alpha 59.664436
_cell_angle_beta 150.361505
_cell_angle_gamma 122.639616
_cell_volume 645.924295
_symmetry_space_group_name_H-M "P -1"
_symmetry_group_IT_number 2
_symmetry_cell_setting 'triclinic'
loop_
_space_group_symop_operation_xyz
x,y,z
-x,-y,-z
loop_
_atom_site_type_symbol
_atom_site_label
_atom_site_fract_x
_atom_site_fract_y
_atom_site_fract_z
Si Si1 0.238276 0.943735 0.957136
Si Si2 0.074887 0.786093 0.162336
Si Si3 0.106237 0.415769 0.971604
Si Si4 0.493660 0.275651 0.182443
Si Si5 0.500000 0.500000 0.000000
Si Si6 0.271777 0.120357 0.657620
Si Si7 0.196418 0.432924 0.361460
Si Si8 0.584539 0.307202 0.927888
O O1 0.025383 0.889115 0.682593
O O2 0.242309 0.055378 0.831714
O O3 0.126388 0.890252 0.044351
O O4 0.539309 0.927358 0.225611
O O5 0.346322 0.770853 0.507852
O O6 0.988930 0.698979 0.042287
O O7 0.828147 0.764574 0.061102
O O8 0.855780 0.468359 0.709930
O O9 0.270684 0.462375 0.945876
O O10 0.269472 0.438546 0.256847
O O11 0.571420 0.392138 0.167482
O O12 0.580408 0.256470 0.121855
O O13 0.439111 0.228575 0.745937
O O14 0.388739 0.382598 0.681746
O O15 0.891392 0.362344 0.135032
#
# Coordination Sequence:
#
# PCOD9006792 Si02
#       8
#     2   2   2   2   1   2   2   2
#     4  10  21  41  64  97 117 159 203 263 312 389
#     4  11  23  39  61  86 127 158 215 250 312 369
#     4  10  23  40  63  94 121 173 205 268 311 372
#     4  11  25  38  60  86 121 174 210 248 307 375
#     4  10  22  42  60  84 130 168 216 250 302 370
#     4  10  21  38  69  91 123 155 205 255 331 365
#     4  11  25  39  64  92 130 158 217 257 321 367
#     4  12  23  43  61  92 128 165 205 266 309 379
#
# _framework density 23.222536999999999
#
# number of rings (size 3 to 8) (size 9 to 14) (size 15 to 20)
#    0.000    1.333    1.333    4.000    1.867    6.400 
#    0.000    1.333    0.000    0.000    0.000    0.000 
#    0.000    0.000    0.000    0.000    0.000    0.000 
#
# Total GULP energy -83699.561258 kJ/mol
# GULP energy per Si atom -5579.970751 kJ/mol
# Density = 2.316968 g / cm^3
# Si number density = 23.222537 Si / 1000 Ang^3
#
#
#
# Elastic Constant Matrix: (Units=GPa)
#
#
# Indices 1 2 3 4 5 6 
#
# 1 82.8502 0.1735 0.9917 -0.7031 5.9937 20.9361
# 2 0.1735 56.4610 8.0919 -0.3386 2.5783 31.2645
# 3 0.9917 8.0919 70.4600 -3.2473 2.6829 2.4042
# 4 -0.7031 -0.3386 -3.2473 28.8481 11.4496 -7.3724
# 5 5.9937 2.5783 2.6829 11.4496 26.0862 -0.7138
# 6 20.9361 31.2645 2.4042 -7.3724 -0.7138 32.1949
#
#
#
# Elastic Compliance Matrix: (Units=1/GPa)
#
#
# Indices 1 2 3 4 5 6 
#
# 1 0.020543 0.018292 -0.001374 -0.005873 -0.004698 -0.032469
# 2 0.018292 0.058313 -0.005077 -0.016098 -0.004347 -0.071927
# 3 -0.001374 -0.005077 0.014872 0.003903 -0.002273 0.005556
# 4 -0.005873 -0.016098 0.003903 0.049823 -0.018504 0.030159
# 5 -0.004698 -0.004347 -0.002273 -0.018504 0.048316 0.004280
# 6 -0.032469 -0.071927 0.005556 0.030159 0.004280 0.128610
#
#
# Mechanical properties :
#
#
# Convention : Reuss Voigt Hill
#
# Bulk Modulus (GPa) = 8.51700 25.36507 16.94103
# Shear Modulus (GPa) = 14.88404 30.79345 22.83875
#
# Velocity S-wave (km/s) = 2.53441 3.64540 3.13944
# Velocity P-wave (km/s) = 3.49855 5.35396 4.52243
#
# Compressibility (1/GPa) = 0.11741218
#
# Stress axis : x y z
#
# Youngs Moduli (GPa) = 48.67848 17.14870 67.24202
#
# Poissons Ratio (x) = -0.31369 0.09238
# Poissons Ratio (y) = -0.89044 0.34135
# Poissons Ratio (z) = 0.06687 0.08706
#
# Static dielectric constant tensor:
#      x y z
#    x 1.876390 -0.002620 -0.026910 
#    y -0.002620 1.883820 0.025920 
#    z -0.026910 0.025920 1.853160 
# 
# From -- ./inp_files/135717.got.cif
#   From: 2010.05.17/outbox.cif.g08.bks.cpg/sg2_68_cif.got.tgz:135717.got - 2010.06.03 11:33:40.
