data_PCOD9006503
_publ_section_title
;
Structure prediction by ZEFSAII (Michael W. Deem and Ramdas Pophale) SiO2 
 PCOD9006503
Probable space group: P -1
;
_chemical_formula_sum "Si O2"
_cell_formula_units_Z 14
_cell_length_a 5.329253
_cell_length_b 23.788089
_cell_length_c 5.390419
_cell_angle_alpha 80.947610
_cell_angle_beta 58.315391
_cell_angle_gamma 76.660033
_cell_volume 565.275618
_symmetry_space_group_name_H-M "P -1"
_symmetry_group_IT_number 2
_symmetry_cell_setting 'triclinic'
loop_
_space_group_symop_operation_xyz
x,y,z
-x,-y,-z
loop_
_atom_site_type_symbol
_atom_site_label
_atom_site_fract_x
_atom_site_fract_y
_atom_site_fract_z
Si Si1 0.543748 0.173656 0.491720
Si Si2 0.497619 0.406811 0.268261
Si Si3 0.185053 0.214964 0.148316
Si Si4 0.203660 0.047105 0.614149
Si Si5 0.004210 0.931650 0.785014
Si Si6 0.018783 0.453564 0.802389
Si Si7 0.881664 0.649929 0.853627
O O1 0.337662 0.197184 0.348536
O O2 0.673493 0.105511 0.419803
O O3 0.850441 0.200393 0.315329
O O4 0.381889 0.186807 0.831123
O O5 0.244658 0.459081 0.459762
O O6 0.316315 0.361469 0.269770
O O7 0.763771 0.376460 0.332377
O O8 0.696652 0.435464 0.945054
O O9 0.162779 0.283998 0.094515
O O10 0.189948 0.080191 0.340590
O O11 0.500000 0.000000 0.500000
O O12 0.964396 0.001792 0.762039
O O13 0.101536 0.084550 0.881120
O O14 0.200133 0.392395 0.861494
O O15 0.000000 0.500000 0.000000
#
# Coordination Sequence:
#
# PCOD9006503 Si02
#       7
#     2   2   2   2   2   2   2
#     4  12  28  48  73 105 143 187 238 297 350 417
#     4  10  24  40  68  94 131 173 214 281 330 420
#     4  12  28  46  74 102 140 189 239 294 354 413
#     4  10  21  38  66  93 130 174 221 277 344 412
#     4  10  23  39  62  97 129 175 226 279 343 410
#     4  10  24  42  66  99 132 173 218 278 342 409
#     4  10  26  42  69  94 134 173 230 278 342 413
#
# _framework density 24.766676
#
# number of rings (size 3 to 8) (size 9 to 14) (size 15 to 20)
#    0.857    0.571    0.000    3.429   10.000    1.143 
#    0.000    0.000    0.000    0.000    0.000    0.000 
#    0.000    0.000    0.000    0.000    0.000    0.000 
#
# Total GULP energy -78178.538376 kJ/mol
# GULP energy per Si atom -5584.181313 kJ/mol
# Density = 2.471031 g / cm^3
# Si number density = 24.766676 Si / 1000 Ang^3
#
#
#
# Elastic Constant Matrix: (Units=GPa)
#
#
# Indices 1 2 3 4 5 6 
#
# 1 151.7219 19.3040 58.2998 7.0413 -5.3139 13.3787
# 2 19.3040 120.4093 9.0886 11.2967 -4.6113 19.6722
# 3 58.2998 9.0886 178.6589 32.0541 -3.7329 14.3340
# 4 7.0413 11.2967 32.0541 27.3546 -4.1055 0.6107
# 5 -5.3139 -4.6113 -3.7329 -4.1055 42.4481 -1.8767
# 6 13.3787 19.6722 14.3340 0.6107 -1.8767 43.0110
#
#
#
# Elastic Compliance Matrix: (Units=1/GPa)
#
#
# Indices 1 2 3 4 5 6 
#
# 1 0.007796 -0.001005 -0.002699 0.001706 0.000748 -0.001058
# 2 -0.001005 0.009554 0.001052 -0.004770 0.000352 -0.004325
# 3 -0.002699 0.001052 0.008301 -0.009493 -0.000513 -0.002296
# 4 0.001706 -0.004770 -0.009493 0.049695 0.003856 0.004277
# 5 0.000748 0.000352 -0.000513 0.003856 0.024052 0.000772
# 6 -0.001058 -0.004325 -0.002296 0.004277 0.000772 0.026295
#
#
# Mechanical properties :
#
#
# Convention : Reuss Voigt Hill
#
# Bulk Modulus (GPa) = 49.14287 69.35277 59.24782
# Shear Modulus (GPa) = 36.29019 46.83591 41.56305
#
# Velocity S-wave (km/s) = 3.83205 4.35338 4.10101
# Velocity P-wave (km/s) = 6.28211 7.30291 6.81166
#
# Compressibility (1/GPa) = 0.02034883
#
# Stress axis : x y z
#
# Youngs Moduli (GPa) = 128.27027 104.66467 120.46870
#
# Poissons Ratio (x) = 0.10517 0.32509
# Poissons Ratio (y) = 0.12889 -0.12674
# Poissons Ratio (z) = 0.34614 -0.11012
#
# Static dielectric constant tensor:
#      x y z
#    x 2.079500 0.000190 0.112870 
#    y 0.000190 2.092440 -0.128240 
#    z 0.112870 -0.128240 2.173340 
# 
# From -- ./inp_files/14051.got.cif
#   From: 2010.05.17/outbox.cif.g08.bks.cpg/sg2_8_cif.got.tgz:14051.got - 2010.06.03 11:33:40.
