data_PCOD9006815
_publ_section_title
;
Structure prediction by ZEFSAII (Michael W. Deem and Ramdas Pophale) SiO2 
 PCOD9006815
Probable space group: P -1
;
_chemical_formula_sum "Si O2"
_cell_formula_units_Z 16
_cell_length_a 21.603196
_cell_length_b 16.243146
_cell_length_c 8.737427
_cell_angle_alpha 129.686513
_cell_angle_beta 51.276799
_cell_angle_gamma 162.659850
_cell_volume 701.503941
_symmetry_space_group_name_H-M "P -1"
_symmetry_group_IT_number 2
_symmetry_cell_setting 'triclinic'
loop_
_space_group_symop_operation_xyz
x,y,z
-x,-y,-z
loop_
_atom_site_type_symbol
_atom_site_label
_atom_site_fract_x
_atom_site_fract_y
_atom_site_fract_z
Si Si1 0.088228 0.227099 0.660059
Si Si2 0.657299 0.484796 0.089359
Si Si3 0.437068 0.781342 0.652963
Si Si4 0.591527 0.944102 0.274765
Si Si5 0.246985 0.089874 0.015826
Si Si6 0.705847 0.959862 0.644104
Si Si7 0.136155 0.577343 0.803349
Si Si8 0.304882 0.256488 0.813144
O O1 0.217517 0.399355 0.821421
O O2 0.253699 0.463377 0.555579
O O3 0.000000 0.000000 0.500000
O O4 0.899348 0.069399 0.803212
O O5 0.429921 0.222634 0.208195
O O6 0.769896 0.732470 0.149771
O O7 0.606286 0.339611 0.859224
O O8 0.528200 0.908489 0.494810
O O9 0.612472 0.950363 0.693695
O O10 0.300163 0.717022 0.822169
O O11 0.728476 0.197707 0.269754
O O12 0.719134 0.993119 0.161808
O O13 0.468648 0.419142 0.101039
O O14 0.182010 0.065594 0.927621
O O15 0.665912 0.808507 0.418390
O O16 0.952536 0.274459 0.661403
O O17 0.000000 0.500000 0.000000
#
# Coordination Sequence:
#
# PCOD9006815 Si02
#       8
#     2   2   2   2   2   2   2   2
#     4  11  25  40  63 104 136 178 226 271 337 408
#     4  10  23  39  69  94 143 174 216 278 338 402
#     4  11  26  46  69 100 138 174 226 288 332 401
#     4  11  23  48  66  98 134 177 227 280 340 390
#     4  10  21  41  68  96 140 177 212 275 342 401
#     4  11  23  45  67 107 131 180 225 277 341 401
#     4  12  26  46  73  97 132 181 234 282 334 404
#     4  10  21  38  69  98 136 175 215 273 337 402
#
# _framework density 22.808140999999999
#
# number of rings (size 3 to 8) (size 9 to 14) (size 15 to 20)
#    0.000    1.250    2.500    3.000    7.000    2.500 
#    2.250    0.000    0.000    0.000    0.000    0.000 
#    0.000    0.000    0.000    0.000    0.000    0.000 
#
# Total GULP energy -89379.147469 kJ/mol
# GULP energy per Si atom -5586.196717 kJ/mol
# Density = 2.275623 g / cm^3
# Si number density = 22.808141 Si / 1000 Ang^3
#
#
#
# Elastic Constant Matrix: (Units=GPa)
#
#
# Indices 1 2 3 4 5 6 
#
# 1 108.3754 29.2023 2.8229 -1.4522 -6.4629 -0.0556
# 2 29.2023 63.9489 -12.9685 -11.5748 -8.6792 -16.8256
# 3 2.8229 -12.9685 38.8879 -13.1949 -13.1529 -1.7046
# 4 -1.4522 -11.5748 -13.1949 16.4642 -9.9403 -6.8689
# 5 -6.4629 -8.6792 -13.1529 -9.9403 25.8572 -11.9212
# 6 -0.0556 -16.8256 -1.7046 -6.8689 -11.9212 35.2307
#
#
#
# Elastic Compliance Matrix: (Units=1/GPa)
#
#
# Indices 1 2 3 4 5 6 
#
# 1 0.010179 -0.002340 0.001824 0.004501 0.005159 0.001610
# 2 -0.002340 0.004454 -0.013447 -0.023743 -0.019565 -0.009777
# 3 0.001824 -0.013447 0.003096 -0.028337 -0.022291 -0.019337
# 4 0.004501 -0.023743 -0.028337 -0.014997 -0.040555 -0.029350
# 5 0.005159 -0.019565 -0.022291 -0.040555 -0.002346 -0.019115
# 6 0.001610 -0.009777 -0.019337 -0.029350 -0.019115 0.010592
#
#
# Mechanical properties :
#
#
# Convention : Reuss Voigt Hill
#
# Bulk Modulus (GPa) = -98.07142 27.70285 -35.18428
# Shear Modulus (GPa) = 140.82583 28.32079 84.57331
#
# Velocity S-wave (km/s) = 7.86624 3.52759 6.09597
# Velocity P-wave (km/s) = 6.27788 5.36324 5.83850
#
# Compressibility (1/GPa) = -0.01019665
#
# Stress axis : x y z
#
# Youngs Moduli (GPa) = 98.24178 224.52789 322.94967
#
# Poissons Ratio (x) = 0.52534 -0.58897
# Poissons Ratio (y) = 0.22986 4.34267
# Poissons Ratio (z) = -0.17917 3.01920
#
# Static dielectric constant tensor:
#      x y z
#    x 1.970370 0.005350 -0.004420 
#    y 0.005350 1.861660 -0.002550 
#    z -0.004420 -0.002550 1.828960 
# 
# From -- ./inp_files/208550.got.cif
#   From: 2010.05.17/outbox.cif.g08.bks.cpg/sg2_105_cif.got.tgz:208550.got - 2010.06.03 11:33:40.
