data_PCOD9006394
_publ_section_title
;
Structure prediction by ZEFSAII (Michael W. Deem and Ramdas Pophale) SiO2 
 PCOD9006394
Probable space group: P -1
;
_chemical_formula_sum "Si O2"
_cell_formula_units_Z 10
_cell_length_a 4.920367
_cell_length_b 10.450733
_cell_length_c 10.414318
_cell_angle_alpha 110.426293
_cell_angle_beta 112.032541
_cell_angle_gamma 59.208593
_cell_volume 418.068238
_symmetry_space_group_name_H-M "P -1"
_symmetry_group_IT_number 2
_symmetry_cell_setting 'triclinic'
loop_
_space_group_symop_operation_xyz
x,y,z
-x,-y,-z
loop_
_atom_site_type_symbol
_atom_site_label
_atom_site_fract_x
_atom_site_fract_y
_atom_site_fract_z
Si Si1 0.080952 0.638365 0.899204
Si Si2 0.383160 0.393300 0.520057
Si Si3 0.748172 0.061416 0.357199
Si Si4 0.145989 0.052609 0.166955
Si Si5 0.748314 0.433942 0.825901
O O1 0.450015 0.573518 0.891819
O O2 0.956819 0.508057 0.818815
O O3 0.888510 0.787374 0.837845
O O4 0.062224 0.671520 0.059311
O O5 0.503959 0.230759 0.420295
O O6 0.577025 0.363768 0.677918
O O7 0.000000 0.500000 0.500000
O O8 0.525078 0.973787 0.253305
O O9 0.933291 0.066862 0.261208
O O10 0.000000 0.000000 0.500000
O O11 0.000000 0.000000 0.000000
O O12 0.500000 0.500000 0.500000
#
# Coordination Sequence:
#
# PCOD9006394 Si02
#       5
#     2   2   2   2   2
#     4  10  21  40  65  97 137 170 240 284 351 407
#     4  12  24  42  72 100 141 188 240 289 369 426
#     4  12  28  49  72 110 152 190 246 306 368 442
#     4  12  26  47  74 102 145 200 245 295 360 443
#     4  10  21  38  65  99 130 180 223 300 341 422
#
# _framework density 23.919537999999999
#
# number of rings (size 3 to 8) (size 9 to 14) (size 15 to 20)
#    0.000    0.800    0.000    8.400    2.800    0.000 
#    7.200    0.000    0.000    0.000    0.000    0.000 
#    0.000    0.000    0.000    0.000    0.000    0.000 
#
# Total GULP energy -55904.654632 kJ/mol
# GULP energy per Si atom -5590.465463 kJ/mol
# Density = 2.386510 g / cm^3
# Si number density = 23.919538 Si / 1000 Ang^3
#
#
#
# Elastic Constant Matrix: (Units=GPa)
#
#
# Indices 1 2 3 4 5 6 
#
# 1 170.3935 24.4949 78.2781 -1.1890 9.4630 -11.6305
# 2 24.4949 69.3204 54.7919 -1.2283 4.9488 -7.5974
# 3 78.2781 54.7919 250.0071 1.0595 28.9753 2.2129
# 4 -1.1890 -1.2283 1.0595 26.4577 -0.9959 -2.4466
# 5 9.4630 4.9488 28.9753 -0.9959 46.7023 -5.6951
# 6 -11.6305 -7.5974 2.2129 -2.4466 -5.6951 20.7892
#
#
#
# Elastic Compliance Matrix: (Units=1/GPa)
#
#
# Indices 1 2 3 4 5 6 
#
# 1 0.007252 -0.000265 -0.002321 0.000840 0.000560 0.004460
# 2 -0.000265 0.018673 -0.004287 0.001815 0.001727 0.007819
# 3 -0.002321 -0.004287 0.006111 -0.001102 -0.003450 -0.004590
# 4 0.000840 0.001815 -0.001102 0.038619 0.001916 0.006320
# 5 0.000560 0.001727 -0.003450 0.001916 0.024296 0.008193
# 6 0.004460 0.007819 -0.004590 0.006320 0.008193 0.056931
#
#
# Mechanical properties :
#
#
# Convention : Reuss Voigt Hill
#
# Bulk Modulus (GPa) = 54.66642 89.42787 72.04714
# Shear Modulus (GPa) = 29.11644 40.93356 35.02500
#
# Velocity S-wave (km/s) = 3.49272 4.14128 3.83075
# Velocity P-wave (km/s) = 6.25854 7.76756 7.05352
#
# Compressibility (1/GPa) = 0.01829277
#
# Stress axis : x y z
#
# Youngs Moduli (GPa) = 137.89220 53.55224 163.63611
#
# Poissons Ratio (x) = 0.01417 0.37973
# Poissons Ratio (y) = 0.03650 0.70145
# Poissons Ratio (z) = 0.31999 0.22956
#
# Static dielectric constant tensor:
#      x y z
#    x 1.898410 -0.018030 0.100790 
#    y -0.018030 1.919410 -0.001810 
#    z 0.100790 -0.001810 2.074930 
# 
# From -- ./inp_files/131043.got.cif
#   From: 2010.05.17/outbox.cif.g08.bks.cpg/sg2_66_cif.got.tgz:131043.got - 2010.06.03 11:33:40.
