data_PCOD9006160
_publ_section_title
;
Structure prediction by ZEFSAII (Michael W. Deem and Ramdas Pophale) SiO2 
 PCOD9006160
Probable space group: P -1
;
_chemical_formula_sum "Si O2"
_cell_formula_units_Z 14
_cell_length_a 18.410482
_cell_length_b 13.610534
_cell_length_c 13.598798
_cell_angle_alpha 142.543849
_cell_angle_beta 19.827058
_cell_angle_gamma 149.404838
_cell_volume 585.741413
_symmetry_space_group_name_H-M "P -1"
_symmetry_group_IT_number 2
_symmetry_cell_setting 'triclinic'
loop_
_space_group_symop_operation_xyz
x,y,z
-x,-y,-z
loop_
_atom_site_type_symbol
_atom_site_label
_atom_site_fract_x
_atom_site_fract_y
_atom_site_fract_z
Si Si1 0.526031 0.250195 0.641884
Si Si2 0.384512 0.550065 0.045271
Si Si3 0.723392 0.101297 0.685069
Si Si4 0.232691 0.089179 0.699075
Si Si5 0.046819 0.933624 0.135678
Si Si6 0.231108 0.006647 0.158435
Si Si7 0.999465 0.538720 0.687289
O O1 0.515538 0.438800 0.820002
O O2 0.468451 0.198246 0.559396
O O3 0.808244 0.306312 0.355550
O O4 0.304138 0.086232 0.866219
O O5 0.580627 0.771365 0.942051
O O6 0.198104 0.545172 0.360696
O O7 0.201373 0.435456 0.094402
O O8 0.905075 0.036056 0.442166
O O9 0.830964 0.314808 0.756142
O O10 0.771352 0.082792 0.491593
O O11 0.412564 0.977283 0.978080
O O12 0.173104 0.189894 0.765836
O O13 0.000000 0.000000 0.000000
O O14 0.126161 0.876523 0.089170
O O15 0.000000 0.000000 0.500000
#
# Coordination Sequence:
#
# PCOD9006160 Si02
#       7
#     2   2   2   2   2   2   2
#     4  11  17  31  54  81 106 134 159 206 271 325
#     4  10  19  30  50  79 105 129 169 221 255 300
#     4   9  19  35  52  79 108 130 171 219 250 310
#     4   8  17  33  50  77 111 135 162 199 268 324
#     4   9  18  33  51  77 107 136 162 215 256 301
#     4  11  22  35  53  76 102 142 184 210 248 297
#     4  10  17  28  52  79 106 129 162 215 269 300
#
# _framework density 23.901333000000001
#
# number of rings (size 3 to 8) (size 9 to 14) (size 15 to 20)
#    0.857    1.429    2.857    1.286    0.000    0.571 
#    2.571    1.429    0.000    1.714    0.000    0.000 
#    0.000    0.000    0.000    0.000    0.000    0.000 
#
# Total GULP energy -78013.653032 kJ/mol
# GULP energy per Si atom -5572.403788 kJ/mol
# Density = 2.384693 g / cm^3
# Si number density = 23.901333 Si / 1000 Ang^3
#
#
#
# Elastic Constant Matrix: (Units=GPa)
#
#
# Indices 1 2 3 4 5 6 
#
# 1 128.4786 28.4157 31.9823 -20.5055 -32.2998 42.9088
# 2 28.4157 44.0462 4.5741 3.2136 -3.6105 14.7349
# 3 31.9823 4.5741 100.1065 -1.5884 -21.9347 3.4950
# 4 -20.5055 3.2136 -1.5884 24.1696 3.4198 -15.1077
# 5 -32.2998 -3.6105 -21.9347 3.4198 42.6984 -5.7022
# 6 42.9088 14.7349 3.4950 -15.1077 -5.7022 45.4341
#
#
#
# Elastic Compliance Matrix: (Units=1/GPa)
#
#
# Indices 1 2 3 4 5 6 
#
# 1 0.016607 -0.007095 -0.002613 0.007664 0.008733 -0.009538
# 2 -0.007095 0.031100 0.000362 -0.015283 -0.002504 -0.008809
# 3 -0.002613 0.000362 0.011690 -0.001092 0.004365 0.001636
# 4 0.007664 -0.015283 -0.001092 0.061060 0.001497 0.018294
# 5 0.008733 -0.002504 0.004365 0.001497 0.031493 -0.003321
# 6 -0.009538 -0.008809 0.001636 0.018294 -0.003321 0.039415
#
#
# Mechanical properties :
#
#
# Convention : Reuss Voigt Hill
#
# Bulk Modulus (GPa) = 24.56765 44.73061 34.64913
# Shear Modulus (GPa) = 22.35880 36.30437 29.33158
#
# Velocity S-wave (km/s) = 3.06185 3.90157 3.50693
# Velocity P-wave (km/s) = 4.77504 6.24913 5.56114
#
# Compressibility (1/GPa) = 0.04070393
#
# Stress axis : x y z
#
# Youngs Moduli (GPa) = 60.21515 32.15444 85.54551
#
# Poissons Ratio (x) = 0.22814 0.22357
# Poissons Ratio (y) = 0.42723 -0.03098
# Poissons Ratio (z) = 0.15737 -0.01164
#
# Static dielectric constant tensor:
#      x y z
#    x 2.027670 0.096510 -0.028300 
#    y 0.096510 1.983500 0.029040 
#    z -0.028300 0.029040 1.915710 
# 
# From -- ./inp_files/541520.got.cif
#   From: 2010.05.17/outbox.cif.g08.bks.cpg/sg2_271_cif.got.tgz:541520.got - 2010.06.03 11:33:40.
