data_PCOD9006668
_publ_section_title
;
Structure prediction by ZEFSAII (Michael W. Deem and Ramdas Pophale) SiO2 
 PCOD9006668
Probable space group: P -1
;
_chemical_formula_sum "Si O2"
_cell_formula_units_Z 14
_cell_length_a 4.952422
_cell_length_b 12.542794
_cell_length_c 20.664813
_cell_angle_alpha 147.212776
_cell_angle_beta 73.850355
_cell_angle_gamma 92.703192
_cell_volume 623.208422
_symmetry_space_group_name_H-M "P -1"
_symmetry_group_IT_number 2
_symmetry_cell_setting 'triclinic'
loop_
_space_group_symop_operation_xyz
x,y,z
-x,-y,-z
loop_
_atom_site_type_symbol
_atom_site_label
_atom_site_fract_x
_atom_site_fract_y
_atom_site_fract_z
Si Si1 0.712189 0.094518 0.482112
Si Si2 0.757547 0.500035 0.931624
Si Si3 0.761642 0.561113 0.371480
Si Si4 0.229822 0.413159 0.379099
Si Si5 0.089069 0.075248 0.744810
Si Si6 0.930254 0.337694 0.700826
Si Si7 0.503670 0.968297 0.192734
O O1 0.403682 0.193501 0.512707
O O2 0.765281 0.251415 0.611594
O O3 0.936445 0.044844 0.380376
O O4 0.800369 0.866652 0.392463
O O5 0.726174 0.430164 0.824420
O O6 0.047515 0.312627 0.846043
O O7 0.500000 0.500000 0.000000
O O8 0.753812 0.736620 0.045826
O O9 0.483958 0.506885 0.390459
O O10 0.011217 0.472218 0.362935
O O11 0.939018 0.498364 0.258557
O O12 0.000000 0.500000 0.500000
O O13 0.422954 0.167280 0.253113
O O14 0.381386 0.972385 0.716572
O O15 0.805476 0.074343 0.803971
#
# Coordination Sequence:
#
# PCOD9006668 Si02
#       7
#     2   2   2   2   2   2   2
#     4  10  21  40  67  98 135 165 209 261 342 387
#     4   9  21  44  69  97 130 168 216 268 326 390
#     4  12  23  43  61  96 131 170 216 268 321 381
#     4  12  25  41  65  93 130 175 222 268 315 379
#     4  10  21  38  67  97 128 165 208 270 323 388
#     4  10  22  42  66 102 130 172 211 269 329 397
#     4  11  22  42  63  95 128 171 218 264 318 376
#
# _framework density 22.464395
#
# number of rings (size 3 to 8) (size 9 to 14) (size 15 to 20)
#    0.000    1.429    1.429    3.857    2.000    0.000 
#   18.000    1.429    0.000    0.000    0.000    0.000 
#    0.000    0.000    0.000    0.000    0.000    0.000 
#
# Total GULP energy -77935.481342 kJ/mol
# GULP energy per Si atom -5566.820096 kJ/mol
# Density = 2.241326 g / cm^3
# Si number density = 22.464395 Si / 1000 Ang^3
#
#
#
# Elastic Constant Matrix: (Units=GPa)
#
#
# Indices 1 2 3 4 5 6 
#
# 1 113.2195 62.3926 18.5524 3.1724 -1.0027 -15.7278
# 2 62.3926 181.8191 73.5305 11.6288 -4.8980 -10.7865
# 3 18.5524 73.5305 79.8772 -3.4807 10.1634 -7.4943
# 4 3.1724 11.6288 -3.4807 44.6895 -0.0198 -9.1481
# 5 -1.0027 -4.8980 10.1634 -0.0198 18.1626 2.0687
# 6 -15.7278 -10.7865 -7.4943 -9.1481 2.0687 52.1341
#
#
#
# Elastic Compliance Matrix: (Units=1/GPa)
#
#
# Indices 1 2 3 4 5 6 
#
# 1 0.011520 -0.004946 0.002546 0.001311 -0.002479 0.003146
# 2 -0.004946 0.012451 -0.011927 -0.004173 0.009954 -0.001758
# 3 0.002546 -0.011927 0.025783 0.005683 -0.017920 0.003715
# 4 0.001311 -0.004173 0.005683 0.024811 -0.004763 0.004892
# 5 -0.002479 0.009954 -0.017920 -0.004763 0.068176 -0.004806
# 6 0.003146 -0.001758 0.003715 0.004892 -0.004806 0.021350
#
#
# Mechanical properties :
#
#
# Convention : Reuss Voigt Hill
#
# Bulk Modulus (GPa) = 47.39459 75.98520 61.68990
# Shear Modulus (GPa) = 25.02763 37.69328 31.36045
#
# Velocity S-wave (km/s) = 3.34144 4.10068 3.74037
# Velocity P-wave (km/s) = 6.00253 7.50459 6.79519
#
# Compressibility (1/GPa) = 0.02109945
#
# Stress axis : x y z
#
# Youngs Moduli (GPa) = 86.80930 80.31184 38.78488
#
# Poissons Ratio (x) = 0.39726 -0.09873
# Poissons Ratio (y) = 0.42940 0.46257
# Poissons Ratio (z) = -0.22099 0.95784
#
# Static dielectric constant tensor:
#      x y z
#    x 1.924350 0.072640 -0.044410 
#    y 0.072640 1.869080 -0.039910 
#    z -0.044410 -0.039910 1.992590 
# 
# From -- ./inp_files/582886.got.cif
#   From: 2010.05.17/outbox.cif.g08.bks.cpg/sg2_292_cif.got.tgz:582886.got - 2010.06.03 11:33:40.
