data_PCOD9006007
_publ_section_title
;
Structure prediction by ZEFSAII (Michael W. Deem and Ramdas Pophale) SiO2 
 PCOD9006007
Probable space group: P -1
;
_chemical_formula_sum "Si O2"
_cell_formula_units_Z 14
_cell_length_a 11.343598
_cell_length_b 8.036048
_cell_length_c 12.558513
_cell_angle_alpha 59.063079
_cell_angle_beta 44.232968
_cell_angle_gamma 44.040504
_cell_volume 555.152294
_symmetry_space_group_name_H-M "P -1"
_symmetry_group_IT_number 2
_symmetry_cell_setting 'triclinic'
loop_
_space_group_symop_operation_xyz
x,y,z
-x,-y,-z
loop_
_atom_site_type_symbol
_atom_site_label
_atom_site_fract_x
_atom_site_fract_y
_atom_site_fract_z
Si Si1 0.737901 0.172262 0.377995
Si Si2 0.664638 0.821471 0.320408
Si Si3 0.620758 0.647114 0.952732
Si Si4 0.000805 0.366475 0.647463
Si Si5 0.760342 0.217158 0.579438
Si Si6 0.619129 0.822835 0.116786
Si Si7 0.538906 0.352019 0.239746
O O1 0.539214 0.163210 0.521692
O O2 0.733350 0.298027 0.447142
O O3 0.698691 0.303745 0.248697
O O4 0.936045 0.897103 0.335844
O O5 0.835303 0.692283 0.344689
O O6 0.734521 0.724063 0.187115
O O7 0.583642 0.098345 0.276442
O O8 0.426391 0.539328 0.920232
O O9 0.780392 0.539606 0.789066
O O10 0.431871 0.917400 0.957715
O O11 0.709350 0.680214 0.995324
O O12 0.000000 0.500000 0.500000
O O13 0.604252 0.141099 0.731214
O O14 0.682108 0.434109 0.638841
O O15 0.000000 0.000000 0.500000
#
# Coordination Sequence:
#
# PCOD9006007 Si02
#       7
#     2   2   2   2   2   2   2
#     4  10  22  39  60  90 128 163 206 259 311 370
#     4  10  22  40  65  92 124 167 209 254 313 371
#     4  10  22  40  61  88 128 166 207 258 310 370
#     4  11  22  38  64  92 119 159 213 262 305 369
#     4  10  21  38  64  92 121 162 213 259 303 367
#     4   9  21  43  62  89 128 164 204 255 317 372
#     4  10  21  39  60  89 129 167 204 255 314 366
#
# _framework density 25.218305000000001
#
# number of rings (size 3 to 8) (size 9 to 14) (size 15 to 20)
#    0.000    2.000    0.000    3.857    0.000    9.143 
#    0.000    7.857    0.000    0.000    0.000    0.000 
#    0.000    0.000    0.000    0.000    0.000    0.000 
#
# Total GULP energy -78407.743064 kJ/mol
# GULP energy per Si atom -5600.553076 kJ/mol
# Density = 2.516091 g / cm^3
# Si number density = 25.218305 Si / 1000 Ang^3
#
#
#
# Elastic Constant Matrix: (Units=GPa)
#
#
# Indices 1 2 3 4 5 6 
#
# 1 88.0947 27.2479 38.2271 -6.3516 25.7855 -7.4227
# 2 27.2479 126.1020 54.5028 -16.0299 -3.7984 -6.7883
# 3 38.2271 54.5028 165.2995 -13.0997 44.3626 -1.0555
# 4 -6.3516 -16.0299 -13.0997 54.9902 0.0153 7.5176
# 5 25.7855 -3.7984 44.3626 0.0153 41.2060 -6.3283
# 6 -7.4227 -6.7883 -1.0555 7.5176 -6.3283 34.4343
#
#
#
# Elastic Compliance Matrix: (Units=1/GPa)
#
#
# Indices 1 2 3 4 5 6 
#
# 1 0.015462 -0.003782 0.000568 0.000753 -0.010559 0.000500
# 2 -0.003782 0.011743 -0.005514 0.001279 0.009824 0.002857
# 3 0.000568 -0.005514 0.011569 0.001700 -0.013861 -0.003529
# 4 0.000753 0.001279 0.001700 0.019645 -0.002859 -0.004348
# 5 -0.010559 0.009824 -0.013861 -0.002859 0.048040 0.008689
# 6 0.000500 0.002857 -0.003529 -0.004348 0.008689 0.032149
#
#
# Mechanical properties :
#
#
# Convention : Reuss Voigt Hill
#
# Bulk Modulus (GPa) = 46.91016 68.82799 57.86907
# Shear Modulus (GPa) = 30.64288 43.42731 37.03510
#
# Velocity S-wave (km/s) = 3.48962 4.15427 3.83636
# Velocity P-wave (km/s) = 5.90581 7.09667 6.52845
#
# Compressibility (1/GPa) = 0.02131734
#
# Stress axis : x y z
#
# Youngs Moduli (GPa) = 64.67540 85.15772 86.44049
#
# Poissons Ratio (x) = 0.32206 -0.04910
# Poissons Ratio (y) = 0.24459 0.47665
# Poissons Ratio (z) = -0.03674 0.46958
#
# Static dielectric constant tensor:
#      x y z
#    x 2.119710 0.015990 0.027520 
#    y 0.015990 1.992840 -0.023960 
#    z 0.027520 -0.023960 1.955830 
# 
# From -- ./inp_files/285736.got.cif
#   From: 2010.05.17/outbox.cif.g08.bks.cpg/sg2_143_cif.got.tgz:285736.got - 2010.06.03 11:33:40.
