data_PCOD9006735
_publ_section_title
;
Structure prediction by ZEFSAII (Michael W. Deem and Ramdas Pophale) SiO2 
 PCOD9006735
Probable space group: P -1
;
_chemical_formula_sum "Si O2"
_cell_formula_units_Z 16
_cell_length_a 9.295963
_cell_length_b 18.444189
_cell_length_c 9.080879
_cell_angle_alpha 32.592043
_cell_angle_beta 62.666141
_cell_angle_gamma 79.084150
_cell_volume 678.610105
_symmetry_space_group_name_H-M "P -1"
_symmetry_group_IT_number 2
_symmetry_cell_setting 'triclinic'
loop_
_space_group_symop_operation_xyz
x,y,z
-x,-y,-z
loop_
_atom_site_type_symbol
_atom_site_label
_atom_site_fract_x
_atom_site_fract_y
_atom_site_fract_z
Si Si1 0.433253 0.692900 0.621235
Si Si2 0.815612 0.418053 0.309496
Si Si3 0.737060 0.205696 0.225911
Si Si4 0.207424 0.190165 0.612591
Si Si5 0.130679 0.867491 0.272390
Si Si6 0.675617 0.952979 0.854442
Si Si7 0.877665 0.765382 0.096073
Si Si8 0.808510 0.461901 0.575300
O O1 0.337117 0.578938 0.732448
O O2 0.283752 0.699490 0.788647
O O3 0.591865 0.694138 0.648214
O O4 0.532331 0.845324 0.220604
O O5 0.796388 0.248839 0.619086
O O6 0.820696 0.476633 0.369844
O O7 0.000000 0.500000 0.000000
O O8 0.615348 0.036861 0.615641
O O9 0.696399 0.291849 0.963123
O O10 0.219299 0.141208 0.092103
O O11 0.109810 0.192911 0.808759
O O12 0.082907 0.207849 0.516071
O O13 0.198405 0.024576 0.886315
O O14 0.190265 0.917545 0.324987
O O15 0.757339 0.590458 0.439529
O O16 0.069783 0.793970 0.893364
O O17 0.000000 0.500000 0.500000
#
# Coordination Sequence:
#
# PCOD9006735 Si02
#       8
#     2   2   2   2   2   2   2   2
#     4  10  22  39  66  96 127 160 222 267 316 368
#     4  12  23  39  65  96 123 171 218 257 312 393
#     4  11  19  36  63  96 122 167 208 261 319 372
#     4   9  20  39  65  92 125 167 202 273 312 374
#     4   9  18  36  64  89 122 158 223 242 312 372
#     4  10  21  38  68  93 126 171 212 267 314 382
#     4   9  19  37  59  89 124 168 209 251 324 379
#     4  10  22  37  59  87 131 164 208 260 315 376
#
# _framework density 23.577604999999998
#
# number of rings (size 3 to 8) (size 9 to 14) (size 15 to 20)
#    0.000    2.250    1.250    3.750    1.750    0.000 
#    0.000    8.750   16.500    0.000    0.000    0.000 
#    0.000    0.000    0.000    0.000    0.000    0.000 
#
# Total GULP energy -89235.396943 kJ/mol
# GULP energy per Si atom -5577.212309 kJ/mol
# Density = 2.352394 g / cm^3
# Si number density = 23.577605 Si / 1000 Ang^3
#
#
#
# Elastic Constant Matrix: (Units=GPa)
#
#
# Indices 1 2 3 4 5 6 
#
# 1 98.0956 13.2221 15.1266 -10.0556 -25.0525 10.8995
# 2 13.2221 89.2118 15.7457 1.4824 -7.5185 0.6873
# 3 15.1266 15.7457 60.8097 3.4509 3.4927 10.4418
# 4 -10.0556 1.4824 3.4509 41.6858 -3.1165 -0.8956
# 5 -25.0525 -7.5185 3.4927 -3.1165 36.9639 -4.1595
# 6 10.8995 0.6873 10.4418 -0.8956 -4.1595 25.3869
#
#
#
# Elastic Compliance Matrix: (Units=1/GPa)
#
#
# Indices 1 2 3 4 5 6 
#
# 1 0.014126 -0.000666 -0.003683 0.004413 0.009848 -0.002763
# 2 -0.000666 0.012112 -0.003416 -0.000081 0.002528 0.001774
# 3 -0.003683 -0.003416 0.020102 -0.003062 -0.006218 -0.007721
# 4 0.004413 -0.000081 -0.003062 0.025752 0.005569 0.001188
# 5 0.009848 0.002528 -0.006218 0.005569 0.035785 0.004320
# 6 -0.002763 0.001774 -0.007721 0.001188 0.004320 0.044454
#
#
# Mechanical properties :
#
#
# Convention : Reuss Voigt Hill
#
# Bulk Modulus (GPa) = 32.45639 37.36732 34.91185
# Shear Modulus (GPa) = 28.06940 34.40886 31.23913
#
# Velocity S-wave (km/s) = 3.45412 3.82434 3.64393
# Velocity P-wave (km/s) = 5.45010 5.94843 5.70471
#
# Compressibility (1/GPa) = 0.03081057
#
# Stress axis : x y z
#
# Youngs Moduli (GPa) = 70.79043 82.56601 49.74618
#
# Poissons Ratio (x) = 0.05496 0.18323
# Poissons Ratio (y) = 0.04712 0.16992
# Poissons Ratio (z) = 0.26074 0.28202
#
# Static dielectric constant tensor:
#      x y z
#    x 1.954770 -0.025360 0.002960 
#    y -0.025360 1.841380 -0.020010 
#    z 0.002960 -0.020010 2.012070 
# 
# From -- ./inp_files/437949.got.cif
#   From: 2010.05.17/outbox.cif.g08.bks.cpg/sg2_219_cif.got.tgz:437949.got - 2010.06.03 11:33:40.
