data_PCOD9006054
_publ_section_title
;
Structure prediction by ZEFSAII (Michael W. Deem and Ramdas Pophale) SiO2 
 PCOD9006054
Probable space group: P -1
;
_chemical_formula_sum "Si O2"
_cell_formula_units_Z 14
_cell_length_a 9.221202
_cell_length_b 17.341197
_cell_length_c 12.185761
_cell_angle_alpha 147.639999
_cell_angle_beta 146.275336
_cell_angle_gamma 45.924175
_cell_volume 578.893232
_symmetry_space_group_name_H-M "P -1"
_symmetry_group_IT_number 2
_symmetry_cell_setting 'triclinic'
loop_
_space_group_symop_operation_xyz
x,y,z
-x,-y,-z
loop_
_atom_site_type_symbol
_atom_site_label
_atom_site_fract_x
_atom_site_fract_y
_atom_site_fract_z
Si Si1 0.262877 0.515041 0.614080
Si Si2 0.830612 0.450347 0.941191
Si Si3 0.789984 0.799136 0.806371
Si Si4 0.743064 0.167215 0.424505
Si Si5 0.808713 0.988051 0.586097
Si Si6 0.244307 0.095561 0.313881
Si Si7 0.270178 0.609985 0.515454
O O1 0.544881 0.515642 0.848901
O O2 0.260495 0.357827 0.365252
O O3 0.282358 0.643597 0.692494
O O4 0.000000 0.500000 0.500000
O O5 0.803414 0.279844 0.697406
O O6 0.000000 0.500000 0.000000
O O7 0.002712 0.517296 0.224998
O O8 0.546294 0.895105 0.806446
O O9 0.757252 0.783527 0.635411
O O10 0.058807 0.869881 0.102639
O O11 0.724010 0.260586 0.411862
O O12 0.984749 0.065471 0.436345
O O13 0.791529 0.877836 0.546975
O O14 0.524010 0.017911 0.395977
O O15 0.000000 0.000000 0.000000
O O16 0.500000 0.500000 0.500000
#
# Coordination Sequence:
#
# PCOD9006054 Si02
#       7
#     2   2   2   2   2   2   2
#     4  11  24  40  63  95 124 160 206 254 306 363
#     4   9  19  40  58  87 124 156 204 245 295 360
#     4  10  21  40  59  90 127 150 200 257 296 362
#     4  10  21  38  64  94 118 158 208 244 298 371
#     4  10  21  41  62  88 118 160 201 247 308 358
#     4   9  21  42  57  82 124 160 196 248 304 353
#     4  11  20  42  63  87 126 167 196 253 306 355
#
# _framework density 24.184080000000002
#
# number of rings (size 3 to 8) (size 9 to 14) (size 15 to 20)
#    0.000    2.000    4.286    0.429    2.000    3.429 
#   20.571    0.000    0.000    0.000    0.000    0.000 
#    0.000    0.000    0.000    0.000    0.000    0.000 
#
# Total GULP energy -78085.448099 kJ/mol
# GULP energy per Si atom -5577.532007 kJ/mol
# Density = 2.412904 g / cm^3
# Si number density = 24.184080 Si / 1000 Ang^3
#
#
#
# Elastic Constant Matrix: (Units=GPa)
#
#
# Indices 1 2 3 4 5 6 
#
# 1 89.5095 28.1234 11.3537 -23.2585 24.5233 -10.2386
# 2 28.1234 61.9568 35.3673 -25.3975 2.8724 3.4555
# 3 11.3537 35.3673 115.3175 -40.4518 26.1218 -5.8014
# 4 -23.2585 -25.3975 -40.4518 35.4397 -8.3261 11.9439
# 5 24.5233 2.8724 26.1218 -8.3261 34.9928 -10.9899
# 6 -10.2386 3.4555 -5.8014 11.9439 -10.9899 50.4498
#
#
#
# Elastic Compliance Matrix: (Units=1/GPa)
#
#
# Indices 1 2 3 4 5 6 
#
# 1 0.021526 -0.007935 0.010176 0.016278 -0.018740 -0.001854
# 2 -0.007935 0.027802 -0.005872 0.011803 0.008885 -0.005049
# 3 0.010176 -0.005872 0.022361 0.025255 -0.018923 -0.005062
# 4 0.016278 0.011803 0.025255 0.077642 -0.018068 -0.016918
# 5 -0.018740 0.008885 -0.018923 -0.018068 0.053760 0.009401
# 6 -0.001854 -0.005049 -0.005062 -0.016918 0.009401 0.025262
#
#
# Mechanical properties :
#
#
# Convention : Reuss Voigt Hill
#
# Bulk Modulus (GPa) = 15.52120 46.27473 30.89797
# Shear Modulus (GPa) = 19.44832 36.97244 28.21038
#
# Velocity S-wave (km/s) = 2.83888 3.91422 3.41909
# Velocity P-wave (km/s) = 4.14458 6.29318 5.32830
#
# Compressibility (1/GPa) = 0.06442800
#
# Stress axis : x y z
#
# Youngs Moduli (GPa) = 46.45475 35.96852 44.72001
#
# Poissons Ratio (x) = 0.28542 -0.45507
# Poissons Ratio (y) = 0.36863 0.26258
# Poissons Ratio (z) = -0.47273 0.21120
#
# Static dielectric constant tensor:
#      x y z
#    x 2.184040 -0.107730 0.044810 
#    y -0.107730 2.110500 -0.057670 
#    z 0.044810 -0.057670 1.981910 
# 
# From -- ./inp_files/95182.got.cif
#   From: 2010.05.17/outbox.cif.g08.bks.cpg/sg2_48_cif.got.tgz:95182.got - 2010.06.03 11:33:40.
