data_PCOD9006022
_publ_section_title
;
Structure prediction by ZEFSAII (Michael W. Deem and Ramdas Pophale) SiO2 
 PCOD9006022
Probable space group: P -1
;
_chemical_formula_sum "Si O2"
_cell_formula_units_Z 16
_cell_length_a 9.996952
_cell_length_b 12.820302
_cell_length_c 21.553047
_cell_angle_alpha 33.771094
_cell_angle_beta 147.318295
_cell_angle_gamma 144.792693
_cell_volume 763.068922
_symmetry_space_group_name_H-M "P -1"
_symmetry_group_IT_number 2
_symmetry_cell_setting 'triclinic'
loop_
_space_group_symop_operation_xyz
x,y,z
-x,-y,-z
loop_
_atom_site_type_symbol
_atom_site_label
_atom_site_fract_x
_atom_site_fract_y
_atom_site_fract_z
Si Si1 0.818761 0.431594 0.106857
Si Si2 0.372561 0.987708 0.323650
Si Si3 0.137794 0.137388 0.722755
Si Si4 0.565662 0.157804 0.029837
Si Si5 0.642647 0.474869 0.795318
Si Si6 0.973958 0.886903 0.111429
Si Si7 0.303882 0.080362 0.421700
Si Si8 0.358775 0.578929 0.823388
O O1 0.683650 0.239429 0.103549
O O2 0.780989 0.381161 0.189312
O O3 0.244538 0.060151 0.960305
O O4 0.641899 0.565521 0.959755
O O5 0.554814 0.227799 0.282669
O O6 0.568087 0.883855 0.477489
O O7 0.104965 0.917514 0.296056
O O8 0.251875 0.946100 0.227777
O O9 0.351273 0.362812 0.706347
O O10 0.305084 0.995296 0.867422
O O11 0.993820 0.086538 0.624815
O O12 0.124525 0.535823 0.152945
O O13 0.644055 0.354256 0.918588
O O14 0.696334 0.710165 0.709069
O O15 0.830431 0.641997 0.167283
O O16 0.000000 0.000000 0.000000
O O17 0.500000 0.000000 0.500000
#
# Coordination Sequence:
#
# PCOD9006022 Si02
#       8
#     2   2   2   2   2   2   2   2
#     4  10  21  38  64  92 131 162 206 262 331 376
#     4  11  23  43  64  90 130 170 216 256 315 384
#     4  11  24  39  65 100 128 164 210 269 328 388
#     4  11  22  37  65 100 131 159 203 277 333 383
#     4  12  23  40  64  98 132 167 209 272 331 372
#     4  11  24  39  64  99 128 163 213 261 320 383
#     4  10  26  42  63  91 130 176 218 260 309 391
#     4  10  23  40  63  93 126 175 206 261 317 384
#
# _framework density 20.967963000000001
#
# number of rings (size 3 to 8) (size 9 to 14) (size 15 to 20)
#    0.000    1.250    2.500    3.750   10.500    3.000 
#    0.000    0.625    0.000    1.500    0.000    0.000 
#    0.000    0.000    0.000    0.000    0.000    0.000 
#
# Total GULP energy -89356.246112 kJ/mol
# GULP energy per Si atom -5584.765382 kJ/mol
# Density = 2.092024 g / cm^3
# Si number density = 20.967963 Si / 1000 Ang^3
#
#
#
# Elastic Constant Matrix: (Units=GPa)
#
#
# Indices 1 2 3 4 5 6 
#
# 1 82.9950 5.8512 3.9610 3.4755 -0.3563 7.6805
# 2 5.8512 93.6259 4.5925 16.2700 -3.0441 0.3275
# 3 3.9610 4.5925 48.4155 20.5412 -6.4992 -0.5787
# 4 3.4755 16.2700 20.5412 36.9833 -7.4542 -5.6595
# 5 -0.3563 -3.0441 -6.4992 -7.4542 20.5976 2.3704
# 6 7.6805 0.3275 -0.5787 -5.6595 2.3704 25.7527
#
#
#
# Elastic Compliance Matrix: (Units=1/GPa)
#
#
# Indices 1 2 3 4 5 6 
#
# 1 0.012536 -0.000520 -0.000472 -0.001307 -0.000018 -0.004028
# 2 -0.000520 0.011712 0.001535 -0.006130 0.000140 -0.001320
# 3 -0.000472 0.001535 0.027674 -0.015741 0.003605 -0.003048
# 4 -0.001307 -0.006130 -0.015741 0.041547 0.008163 0.008493
# 5 -0.000018 0.000140 0.003605 0.008163 0.053006 -0.003000
# 6 -0.004028 -0.001320 -0.003048 0.008493 -0.003000 0.042123
#
#
# Mechanical properties :
#
#
# Convention : Reuss Voigt Hill
#
# Bulk Modulus (GPa) = 18.86482 28.20508 23.53495
# Shear Modulus (GPa) = 24.36879 30.70883 27.53881
#
# Velocity S-wave (km/s) = 3.41279 3.83111 3.62798
# Velocity P-wave (km/s) = 4.95440 5.74896 5.36640
#
# Compressibility (1/GPa) = 0.05300871
#
# Stress axis : x y z
#
# Youngs Moduli (GPa) = 79.77322 85.37934 36.13554
#
# Poissons Ratio (x) = 0.04436 0.01707
# Poissons Ratio (y) = 0.04145 -0.05548
# Poissons Ratio (z) = 0.03767 -0.13109
#
# Static dielectric constant tensor:
#      x y z
#    x 1.775900 -0.033180 -0.044380 
#    y -0.033180 1.787230 0.035540 
#    z -0.044380 0.035540 1.795870 
# 
# From -- ./inp_files/610448.got.cif
#   From: 2010.05.17/outbox.cif.g08.bks.cpg/sg2_306_cif.got.tgz:610448.got - 2010.06.03 11:33:40.
