data_PCOD9006767
_publ_section_title
;
Structure prediction by ZEFSAII (Michael W. Deem and Ramdas Pophale) SiO2 
 PCOD9006767
Probable space group: P -1
;
_chemical_formula_sum "Si O2"
_cell_formula_units_Z 14
_cell_length_a 16.383276
_cell_length_b 10.687232
_cell_length_c 13.160565
_cell_angle_alpha 156.389854
_cell_angle_beta 40.800422
_cell_angle_gamma 140.095918
_cell_volume 578.779109
_symmetry_space_group_name_H-M "P -1"
_symmetry_group_IT_number 2
_symmetry_cell_setting 'triclinic'
loop_
_space_group_symop_operation_xyz
x,y,z
-x,-y,-z
loop_
_atom_site_type_symbol
_atom_site_label
_atom_site_fract_x
_atom_site_fract_y
_atom_site_fract_z
Si Si1 0.024011 0.599752 0.880246
Si Si2 0.626232 0.682720 0.454161
Si Si3 0.100751 0.288171 0.243520
Si Si4 0.340866 0.640081 0.160672
Si Si5 0.183705 0.728587 0.027016
Si Si6 0.247018 0.399055 0.401937
Si Si7 0.467188 0.243266 0.611750
O O1 0.128520 0.452494 0.618782
O O2 0.889897 0.346189 0.851792
O O3 0.082107 0.730215 0.033257
O O4 0.021817 0.908827 0.044065
O O5 0.500000 0.500000 0.500000
O O6 0.589104 0.588617 0.302303
O O7 0.656265 0.073243 0.710375
O O8 0.746760 0.548828 0.268105
O O9 0.198506 0.409556 0.148535
O O10 0.194456 0.348358 0.299040
O O11 0.000000 0.500000 0.500000
O O12 0.396232 0.865577 0.374889
O O13 0.428347 0.414976 0.873803
O O14 0.280700 0.086034 0.186570
O O15 0.379010 0.688674 0.497095
#
# Coordination Sequence:
#
# PCOD9006767 Si02
#       7
#     2   2   2   2   2   2   2
#     4  10  23  40  66  94 131 177 224 279 338 402
#     4  10  21  38  68  98 138 175 220 274 334 400
#     4  11  26  45  68  94 132 176 232 281 340 401
#     4  10  25  45  67 103 136 181 225 279 334 404
#     4  10  21  40  63  99 135 172 224 277 338 398
#     4  11  24  41  68  97 132 178 223 284 336 408
#     4  10  25  43  69 102 139 177 224 275 341 400
#
# _framework density 24.188848
#
# number of rings (size 3 to 8) (size 9 to 14) (size 15 to 20)
#    0.857    0.857    0.000    3.000    6.000    6.286 
#    0.000    0.000    0.000    0.000    0.000    0.000 
#    0.000    0.000    0.000    0.000    0.000    0.000 
#
# Total GULP energy -78215.022305 kJ/mol
# GULP energy per Si atom -5586.787308 kJ/mol
# Density = 2.413379 g / cm^3
# Si number density = 24.188848 Si / 1000 Ang^3
#
#
#
# Elastic Constant Matrix: (Units=GPa)
#
#
# Indices 1 2 3 4 5 6 
#
# 1 47.6208 47.7766 39.3594 29.6573 -24.6836 6.2655
# 2 47.7766 151.9172 34.2596 1.2349 -0.3119 -19.2423
# 3 39.3594 34.2596 107.1113 -7.8926 0.3003 -15.4817
# 4 29.6573 1.2349 -7.8926 35.4021 3.4064 -9.4080
# 5 -24.6836 -0.3119 0.3003 3.4064 30.1139 9.3374
# 6 6.2655 -19.2423 -15.4817 -9.4080 9.3374 29.6801
#
#
#
# Elastic Compliance Matrix: (Units=1/GPa)
#
#
# Indices 1 2 3 4 5 6 
#
# 1 -0.010924 0.004181 0.006800 0.017302 -0.016945 0.019379
# 2 0.004181 0.005948 -0.004275 -0.005864 0.005031 -0.002698
# 3 0.006800 -0.004275 0.007042 -0.005998 0.007638 -0.004838
# 4 0.017302 -0.005864 -0.005998 0.007243 0.017653 -0.013841
# 5 -0.016945 0.005031 0.007638 0.017653 0.013526 0.012164
# 6 0.019379 -0.002698 -0.004838 -0.013841 0.012164 0.017115
#
#
# Mechanical properties :
#
#
# Convention : Reuss Voigt Hill
#
# Bulk Modulus (GPa) = 64.60599 61.04893 62.82746
# Shear Modulus (GPa) = 157.74649 31.38945 94.56797
#
# Velocity S-wave (km/s) = 8.08431 3.60624 6.25944
# Velocity P-wave (km/s) = 10.67279 6.52941 8.84708
#
# Compressibility (1/GPa) = 0.01547844
#
# Stress axis : x y z
#
# Youngs Moduli (GPa) = -91.54214 168.12487 142.00714
#
# Poissons Ratio (x) = -0.70295 -0.96568
# Poissons Ratio (y) = 0.38275 0.60709
# Poissons Ratio (z) = 0.62251 0.71874
#
# Static dielectric constant tensor:
#      x y z
#    x 1.966570 -0.034820 0.057140 
#    y -0.034820 1.914570 0.043950 
#    z 0.057140 0.043950 1.922020 
# 
# From -- ./inp_files/538379.got.cif
#   From: 2010.05.17/outbox.cif.g08.bks.cpg/sg2_270_cif.got.tgz:538379.got - 2010.06.03 11:33:40.
