data_PCOD9006532
_publ_section_title
;
Structure prediction by ZEFSAII (Michael W. Deem and Ramdas Pophale) SiO2 
 PCOD9006532
Probable space group: P -1
;
_chemical_formula_sum "Si O2"
_cell_formula_units_Z 16
_cell_length_a 8.603505
_cell_length_b 11.608301
_cell_length_c 17.839980
_cell_angle_alpha 144.898499
_cell_angle_beta 138.172155
_cell_angle_gamma 39.411376
_cell_volume 618.485051
_symmetry_space_group_name_H-M "P -1"
_symmetry_group_IT_number 2
_symmetry_cell_setting 'triclinic'
loop_
_space_group_symop_operation_xyz
x,y,z
-x,-y,-z
loop_
_atom_site_type_symbol
_atom_site_label
_atom_site_fract_x
_atom_site_fract_y
_atom_site_fract_z
Si Si1 0.863328 0.965166 0.823028
Si Si2 0.719582 0.897826 0.907188
Si Si3 0.406185 0.718928 0.322330
Si Si4 0.296677 0.370839 0.015755
Si Si5 0.043529 0.155377 0.658002
Si Si6 0.616475 0.299501 0.375978
Si Si7 0.356312 0.347429 0.851762
Si Si8 0.890607 0.786581 0.585140
O O1 0.577154 0.126861 0.782660
O O2 0.822646 0.903133 0.860909
O O3 0.954127 0.782690 0.694368
O O4 0.033789 0.107528 0.961659
O O5 0.597900 0.723384 0.767727
O O6 0.490667 0.123997 0.977361
O O7 0.435393 0.526301 0.171519
O O8 0.673931 0.703811 0.442197
O O9 0.211620 0.721884 0.319230
O O10 0.246826 0.955380 0.351622
O O11 0.277299 0.333115 0.901147
O O12 0.000000 0.500000 0.000000
O O13 0.105805 0.331766 0.721929
O O14 0.259946 0.947663 0.673556
O O15 0.000000 0.000000 0.500000
O O16 0.500000 0.500000 0.500000
O O17 0.846050 0.319260 0.422944
O O18 0.500000 0.500000 0.000000
#
# Coordination Sequence:
#
# PCOD9006532 Si02
#       8
#     2   2   2   2   2   2   2   2
#     4  10  21  42  64  90 132 174 220 267 327 398
#     4  10  23  41  65  90 131 176 214 274 334 392
#     4  10  21  38  66  96 128 171 219 275 333 387
#     4  11  19  39  63  91 128 169 214 267 334 392
#     4  11  22  42  66  95 137 174 220 284 339 394
#     4  11  24  45  66  93 135 176 220 275 342 404
#     4  11  22  37  66  99 126 172 219 277 335 395
#     4  10  22  41  65  97 128 170 224 277 321 402
#
# _framework density 25.869662000000002
#
# number of rings (size 3 to 8) (size 9 to 14) (size 15 to 20)
#    0.000    1.500    3.750    2.250    0.000    6.500 
#    2.250    1.250    0.000    0.000    0.000    0.000 
#    0.000    0.000    0.000    0.000    0.000    0.000 
#
# Total GULP energy -89226.174852 kJ/mol
# GULP energy per Si atom -5576.635928 kJ/mol
# Density = 2.581078 g / cm^3
# Si number density = 25.869662 Si / 1000 Ang^3
#
#
#
# Elastic Constant Matrix: (Units=GPa)
#
#
# Indices 1 2 3 4 5 6 
#
# 1 99.5647 53.6595 19.8243 8.7493 9.4287 -41.0783
# 2 53.6595 106.4757 39.2938 12.9263 4.8465 -29.9419
# 3 19.8243 39.2938 125.7166 12.4998 23.3260 -23.3125
# 4 8.7493 12.9263 12.4998 43.4705 -10.9454 4.8945
# 5 9.4287 4.8465 23.3260 -10.9454 56.2944 1.5788
# 6 -41.0783 -29.9419 -23.3125 4.8945 1.5788 44.6381
#
#
#
# Elastic Compliance Matrix: (Units=1/GPa)
#
#
# Indices 1 2 3 4 5 6 
#
# 1 0.021534 -0.005692 0.003949 -0.007637 -0.006774 0.019137
# 2 -0.005692 0.014552 -0.002810 -0.002687 0.000249 0.003341
# 3 0.003949 -0.002810 0.011656 -0.005969 -0.006655 0.008726
# 4 -0.007637 -0.002687 -0.005969 0.031489 0.010548 -0.015774
# 5 -0.006774 0.000249 -0.006655 0.010548 0.024009 -0.011548
# 6 0.019137 0.003341 0.008726 -0.015774 -0.011548 0.048950
#
#
# Mechanical properties :
#
#
# Convention : Reuss Voigt Hill
#
# Bulk Modulus (GPa) = 25.88372 61.92358 43.90365
# Shear Modulus (GPa) = 28.70675 43.47924 36.09299
#
# Velocity S-wave (km/s) = 3.33478 4.10409 3.73927
# Velocity P-wave (km/s) = 4.98546 6.81519 5.97083
#
# Compressibility (1/GPa) = 0.03863432
#
# Stress axis : x y z
#
# Youngs Moduli (GPa) = 46.43914 68.71978 85.78929
#
# Poissons Ratio (x) = 0.39116 -0.33874
# Poissons Ratio (y) = 0.26434 0.24109
# Poissons Ratio (z) = -0.18337 0.19312
#
# Static dielectric constant tensor:
#      x y z
#    x 2.230750 0.126630 -0.022240 
#    y 0.126630 2.065670 -0.013100 
#    z -0.022240 -0.013100 1.589530 
# 
# From -- ./inp_files/590326.got.cif
#   From: 2010.05.17/outbox.cif.g08.bks.cpg/sg2_296_cif.got.tgz:590326.got - 2010.06.03 11:33:40.
