data_PCOD9006526
_publ_section_title
;
Structure prediction by ZEFSAII (Michael W. Deem and Ramdas Pophale) SiO2 
 PCOD9006526
Probable space group: P -1
;
_chemical_formula_sum "Si O2"
_cell_formula_units_Z 16
_cell_length_a 4.928250
_cell_length_b 16.911104
_cell_length_c 8.796829
_cell_angle_alpha 95.142783
_cell_angle_beta 91.781866
_cell_angle_gamma 64.086050
_cell_volume 656.748457
_symmetry_space_group_name_H-M "P -1"
_symmetry_group_IT_number 2
_symmetry_cell_setting 'triclinic'
loop_
_space_group_symop_operation_xyz
x,y,z
-x,-y,-z
loop_
_atom_site_type_symbol
_atom_site_label
_atom_site_fract_x
_atom_site_fract_y
_atom_site_fract_z
Si Si1 0.481790 0.073059 0.393509
Si Si2 0.137419 0.779868 0.538863
Si Si3 0.636132 0.161440 0.679653
Si Si4 0.940850 0.248797 0.008459
Si Si5 0.384879 0.059886 0.863970
Si Si6 0.003018 0.326161 0.710626
Si Si7 0.738435 0.507801 0.884289
Si Si8 0.604983 0.699319 0.799203
O O1 0.610419 0.128614 0.502115
O O2 0.141205 0.144003 0.361851
O O3 0.500000 0.000000 0.500000
O O4 0.677494 0.009232 0.254378
O O5 0.081115 0.822773 0.368393
O O6 0.092547 0.695625 0.459936
O O7 0.434187 0.737744 0.643875
O O8 0.608780 0.092554 0.783130
O O9 0.361288 0.258168 0.715104
O O10 0.107195 0.284003 0.142704
O O11 0.642294 0.247830 0.068958
O O12 0.136216 0.150258 0.938862
O O13 0.877963 0.306986 0.865786
O O14 0.500000 0.000000 0.000000
O O15 0.883985 0.430217 0.749042
O O16 0.641802 0.600761 0.812362
O O17 0.500000 0.500000 0.000000
O O18 0.000000 0.500000 0.000000
#
# Coordination Sequence:
#
# PCOD9006526 Si02
#       8
#     2   2   2   2   2   2   2   2
#     4   9  20  43  60  93 136 181 233 285 352 411
#     4  11  25  41  72  99 140 187 236 290 356 423
#     4   9  22  41  65  92 138 182 227 284 358 412
#     4  11  25  46  70 101 145 185 237 291 359 416
#     4  10  21  38  66  95 133 176 242 288 338 410
#     4  10  23  43  71  98 141 181 237 281 357 419
#     4  12  24  45  73 106 141 182 233 290 352 426
#     4  12  26  46  72 106 143 187 233 295 358 416
#
# _framework density 24.362445999999998
#
# number of rings (size 3 to 8) (size 9 to 14) (size 15 to 20)
#    0.000    1.500    2.500    1.500   10.500    2.500 
#    2.250    1.875    0.000    0.000    0.000    0.000 
#    0.000    0.000    0.000    0.000    0.000    0.000 
#
# Total GULP energy -89108.159252 kJ/mol
# GULP energy per Si atom -5569.259953 kJ/mol
# Density = 2.430700 g / cm^3
# Si number density = 24.362446 Si / 1000 Ang^3
#
#
#
# Elastic Constant Matrix: (Units=GPa)
#
#
# Indices 1 2 3 4 5 6 
#
# 1 52.0044 -5.2026 1.0786 -7.6811 3.5888 -9.4881
# 2 -5.2026 157.0847 60.9921 -3.0012 -1.2307 0.4711
# 3 1.0786 60.9921 85.5656 12.7216 18.4563 1.5337
# 4 -7.6811 -3.0012 12.7216 51.4592 -1.5199 -7.8362
# 5 3.5888 -1.2307 18.4563 -1.5199 41.0446 -7.0047
# 6 -9.4881 0.4711 1.5337 -7.8362 -7.0047 13.2213
#
#
#
# Elastic Compliance Matrix: (Units=1/GPa)
#
#
# Indices 1 2 3 4 5 6 
#
# 1 0.025860 0.003277 -0.005848 0.009922 0.005608 0.027971
# 2 0.003277 0.010348 -0.009673 0.005096 0.006165 0.009391
# 3 -0.005848 -0.009673 0.023748 -0.010882 -0.014390 -0.020680
# 4 0.009922 0.005096 -0.010882 0.028921 0.010526 0.030919
# 5 0.005608 0.006165 -0.014390 0.010526 0.036190 0.030886
# 6 0.027971 0.009391 -0.020680 0.030919 0.030886 0.132462
#
#
# Mechanical properties :
#
#
# Convention : Reuss Voigt Hill
#
# Bulk Modulus (GPa) = 28.19465 45.37675 36.78570
# Shear Modulus (GPa) = 17.01611 36.99747 27.00679
#
# Velocity S-wave (km/s) = 2.64570 3.90118 3.33309
# Velocity P-wave (km/s) = 4.57505 6.24167 5.47218
#
# Compressibility (1/GPa) = 0.03546772
#
# Stress axis : x y z
#
# Youngs Moduli (GPa) = 38.66970 96.63840 42.10840
#
# Poissons Ratio (x) = -0.31664 0.24624
# Poissons Ratio (y) = -0.12670 0.40732
# Poissons Ratio (z) = 0.22613 0.93480
#
# Static dielectric constant tensor:
#      x y z
#    x 1.793690 0.191100 0.288290 
#    y 0.191100 2.132700 0.107080 
#    z 0.288290 0.107080 2.011540 
# 
# From -- ./inp_files/137831.got.cif
#   From: 2010.05.17/outbox.cif.g08.bks.cpg/sg2_69_cif.got.tgz:137831.got - 2010.06.03 11:33:40.
