data_PCOD9006923
_publ_section_title
;
Structure prediction by ZEFSAII (Michael W. Deem and Ramdas Pophale) SiO2 
 PCOD9006923
Probable space group: P -1
;
_chemical_formula_sum "Si O2"
_cell_formula_units_Z 14
_cell_length_a 25.467896
_cell_length_b 5.386650
_cell_length_c 13.881321
_cell_angle_alpha 112.605188
_cell_angle_beta 156.927308
_cell_angle_gamma 65.109708
_cell_volume 676.963268
_symmetry_space_group_name_H-M "P -1"
_symmetry_group_IT_number 2
_symmetry_cell_setting 'triclinic'
loop_
_space_group_symop_operation_xyz
x,y,z
-x,-y,-z
loop_
_atom_site_type_symbol
_atom_site_label
_atom_site_fract_x
_atom_site_fract_y
_atom_site_fract_z
Si Si1 0.360084 0.723367 0.298541
Si Si2 0.642050 0.456515 0.937367
Si Si3 0.583219 0.750053 0.168401
Si Si4 0.470971 0.054181 0.685809
Si Si5 0.092129 0.122891 0.594879
Si Si6 0.829931 0.431607 0.419792
Si Si7 0.107981 0.506137 0.834657
O O1 0.500000 0.500000 0.500000
O O2 0.323787 0.740708 0.126801
O O3 0.384497 0.986942 0.437061
O O4 0.231980 0.610981 0.109619
O O5 0.552175 0.291492 0.827609
O O6 0.559606 0.755112 0.815640
O O7 0.772281 0.503121 0.225281
O O8 0.603136 0.853559 0.325306
O O9 0.728066 0.623306 0.345748
O O10 0.500000 0.500000 0.000000
O O11 0.500000 0.000000 0.000000
O O12 0.171627 0.275270 0.829500
O O13 0.983748 0.286197 0.362775
O O14 0.180207 0.888024 0.643843
O O15 0.000000 0.000000 0.500000
O O16 0.990583 0.437261 0.696674
#
# Coordination Sequence:
#
# PCOD9006923 Si02
#       7
#     2   2   2   2   2   2   2
#     4  10  23  39  64  91 131 172 208 260 321 395
#     4  11  22  39  66  95 127 165 212 262 323 375
#     4  12  24  42  67  95 128 166 219 270 313 372
#     4  11  23  43  60  96 129 167 212 262 317 377
#     4   9  19  35  59  89 127 160 207 261 319 377
#     4  11  23  36  67  92 127 168 212 272 315 372
#     4  10  21  39  56  95 126 166 210 260 323 381
#
# _framework density 20.680591
#
# number of rings (size 3 to 8) (size 9 to 14) (size 15 to 20)
#    0.000    1.429    2.857    3.000    8.000    0.000 
#   10.286    0.714    0.000    0.857    0.000    0.000 
#    0.000    0.000    0.000    0.000    0.000    0.000 
#
# Total GULP energy -78052.315865 kJ/mol
# GULP energy per Si atom -5575.165419 kJ/mol
# Density = 2.063352 g / cm^3
# Si number density = 20.680591 Si / 1000 Ang^3
#
#
#
# Elastic Constant Matrix: (Units=GPa)
#
#
# Indices 1 2 3 4 5 6 
#
# 1 106.7424 29.3988 24.0542 0.6896 11.8210 -32.2118
# 2 29.3988 96.2718 18.7794 -8.5799 14.1492 -9.5385
# 3 24.0542 18.7794 98.3451 10.7198 25.2917 -12.7112
# 4 0.6896 -8.5799 10.7198 22.4702 0.2598 2.0093
# 5 11.8210 14.1492 25.2917 0.2598 29.8981 -0.5272
# 6 -32.2118 -9.5385 -12.7112 2.0093 -0.5272 48.4374
#
#
#
# Elastic Compliance Matrix: (Units=1/GPa)
#
#
# Indices 1 2 3 4 5 6 
#
# 1 0.013051 -0.002770 -0.000609 -0.001848 -0.003177 0.008016
# 2 -0.002770 0.012545 -0.001364 0.005569 -0.003736 -0.000002
# 3 -0.000609 -0.001364 0.014829 -0.007749 -0.011530 0.003414
# 4 -0.001848 0.005569 -0.007749 0.050713 0.004135 -0.004224
# 5 -0.003177 -0.003736 -0.011530 0.004135 0.046091 -0.005544
# 6 0.008016 -0.000002 0.003414 -0.004224 -0.005544 0.026987
#
#
# Mechanical properties :
#
#
# Convention : Reuss Voigt Hill
#
# Bulk Modulus (GPa) = 32.32295 49.53600 40.92947
# Shear Modulus (GPa) = 27.17170 35.43627 31.30399
#
# Velocity S-wave (km/s) = 3.62867 4.14394 3.89484
# Velocity P-wave (km/s) = 5.76367 6.84845 6.32934
#
# Compressibility (1/GPa) = 0.03093777
#
# Stress axis : x y z
#
# Youngs Moduli (GPa) = 76.62065 79.71569 67.43621
#
# Poissons Ratio (x) = 0.22084 0.04105
# Poissons Ratio (y) = 0.21227 0.09201
# Poissons Ratio (z) = 0.04664 0.10877
#
# Static dielectric constant tensor:
#      x y z
#    x 1.794010 0.078180 0.025350 
#    y 0.078180 1.885910 0.022290 
#    z 0.025350 0.022290 1.798110 
# 
# From -- ./inp_files/70385.got.cif
#   From: 2010.05.17/outbox.cif.g08.bks.cpg/sg2_36_cif.got.tgz:70385.got - 2010.06.03 11:33:40.
