data_PCOD9006589
_publ_section_title
;
Structure prediction by ZEFSAII (Michael W. Deem and Ramdas Pophale) SiO2 
 PCOD9006589
Probable space group: P -1
;
_chemical_formula_sum "Si O2"
_cell_formula_units_Z 16
_cell_length_a 13.652602
_cell_length_b 13.480624
_cell_length_c 7.659813
_cell_angle_alpha 136.224319
_cell_angle_beta 44.342543
_cell_angle_gamma 139.833099
_cell_volume 585.404850
_symmetry_space_group_name_H-M "P -1"
_symmetry_group_IT_number 2
_symmetry_cell_setting 'triclinic'
loop_
_space_group_symop_operation_xyz
x,y,z
-x,-y,-z
loop_
_atom_site_type_symbol
_atom_site_label
_atom_site_fract_x
_atom_site_fract_y
_atom_site_fract_z
Si Si1 0.616920 0.346277 0.758131
Si Si2 0.692930 0.656798 0.843621
Si Si3 0.933219 0.163829 0.012258
Si Si4 0.250821 0.163450 0.622375
Si Si5 0.951281 0.194651 0.449595
Si Si6 0.415706 0.739635 0.830272
Si Si7 0.878346 0.480114 0.892899
Si Si8 0.412911 0.953603 0.784390
O O1 0.658764 0.472689 0.700709
O O2 0.780110 0.430111 0.771001
O O3 0.564473 0.159453 0.531263
O O4 0.465406 0.351382 0.045795
O O5 0.870191 0.768110 0.675632
O O6 0.710631 0.742609 0.121011
O O7 0.089144 0.153746 0.742160
O O8 0.972777 0.337356 0.095207
O O9 0.939676 0.170009 0.222803
O O10 0.748475 0.038198 0.037107
O O11 0.415073 0.250114 0.413645
O O12 0.191385 0.971540 0.493758
O O13 0.937273 0.353935 0.706729
O O14 0.386305 0.837744 0.838916
O O15 0.263844 0.558875 0.837173
O O16 0.445904 0.860766 0.111843
#
# Coordination Sequence:
#
# PCOD9006589 Si02
#       8
#     2   2   2   2   2   2   2   2
#     4  11  21  40  70 100 131 170 226 282 327 396
#     4  10  21  38  67 102 130 168 220 282 342 378
#     4  11  23  42  71 103 130 175 229 284 333 391
#     4  11  23  45  66  94 142 180 217 271 344 405
#     4  11  21  39  69 100 134 169 220 287 332 387
#     4  11  27  45  62  97 144 188 212 270 341 413
#     4  12  24  42  71 105 136 171 229 280 336 395
#     4  11  23  45  67  94 141 179 229 271 331 404
#
# _framework density 27.331512
#
# number of rings (size 3 to 8) (size 9 to 14) (size 15 to 20)
#    0.000    1.000    5.000    4.125    0.000    4.000 
#    0.000    2.500    0.000    0.000    0.000    0.000 
#    0.000    0.000    0.000    0.000    0.000    0.000 
#
# Total GULP energy -89777.742715 kJ/mol
# GULP energy per Si atom -5611.108920 kJ/mol
# Density = 2.726930 g / cm^3
# Si number density = 27.331512 Si / 1000 Ang^3
#
#
#
# Elastic Constant Matrix: (Units=GPa)
#
#
# Indices 1 2 3 4 5 6 
#
# 1 70.2451 0.9986 27.7642 -3.2745 -19.8792 12.8496
# 2 0.9986 91.6447 7.6731 1.8746 9.5971 6.6646
# 3 27.7642 7.6731 98.0439 -12.4889 -18.1808 1.3275
# 4 -3.2745 1.8746 -12.4889 51.2082 0.7142 -7.7061
# 5 -19.8792 9.5971 -18.1808 0.7142 41.8763 -11.3116
# 6 12.8496 6.6646 1.3275 -7.7061 -11.3116 42.3141
#
#
#
# Elastic Compliance Matrix: (Units=1/GPa)
#
#
# Indices 1 2 3 4 5 6 
#
# 1 0.018193 -0.000181 -0.004058 -0.000487 0.005875 -0.003887
# 2 -0.000181 0.011782 -0.001810 -0.001298 -0.004403 -0.003157
# 3 -0.004058 -0.001810 0.012757 0.003302 0.004780 0.002996
# 4 -0.000487 -0.001298 0.003302 0.021027 0.002418 0.004724
# 5 0.005875 -0.004403 0.004780 0.002418 0.031791 0.007698
# 6 -0.003887 -0.003157 0.002996 0.004724 0.007698 0.028135
#
#
# Mechanical properties :
#
#
# Convention : Reuss Voigt Hill
#
# Bulk Modulus (GPa) = 32.64253 36.97839 34.81046
# Shear Modulus (GPa) = 34.24794 41.97957 38.11375
#
# Velocity S-wave (km/s) = 3.54369 3.92336 3.73835
# Velocity P-wave (km/s) = 5.35843 5.83803 5.60337
#
# Compressibility (1/GPa) = 0.03063488
#
# Stress axis : x y z
#
# Youngs Moduli (GPa) = 54.96575 84.87218 78.39042
#
# Poissons Ratio (x) = 0.01537 0.31809
# Poissons Ratio (y) = 0.00995 0.14187
# Poissons Ratio (z) = 0.22304 0.15361
#
# Static dielectric constant tensor:
#      x y z
#    x 2.140160 -0.031320 0.056990 
#    y -0.031320 2.048380 0.003050 
#    z 0.056990 0.003050 2.186810 
# 
# From -- ./inp_files/316032.got.cif
#   From: 2010.05.17/outbox.cif.g08.bks.cpg/sg2_159_cif.got.tgz:316032.got - 2010.06.03 11:33:40.
