data_PCOD9006603
_publ_section_title
;
Structure prediction by ZEFSAII (Michael W. Deem and Ramdas Pophale) SiO2 
 PCOD9006603
Probable space group: P -1
;
_chemical_formula_sum "Si O2"
_cell_formula_units_Z 16
_cell_length_a 17.126314
_cell_length_b 23.111411
_cell_length_c 6.787464
_cell_angle_alpha 71.067062
_cell_angle_beta 81.977251
_cell_angle_gamma 19.516608
_cell_volume 721.981233
_symmetry_space_group_name_H-M "P -1"
_symmetry_group_IT_number 2
_symmetry_cell_setting 'triclinic'
loop_
_space_group_symop_operation_xyz
x,y,z
-x,-y,-z
loop_
_atom_site_type_symbol
_atom_site_label
_atom_site_fract_x
_atom_site_fract_y
_atom_site_fract_z
Si Si1 0.520831 0.197830 0.180805
Si Si2 0.132701 0.777229 0.446124
Si Si3 0.190279 0.650596 0.897770
Si Si4 0.430691 0.456414 0.433654
Si Si5 0.712310 0.007627 0.928173
Si Si6 0.809972 0.590663 0.575372
Si Si7 0.786379 0.814425 0.182768
Si Si8 0.137598 0.582466 0.680061
O O1 0.356258 0.278524 0.306412
O O2 0.654607 0.056503 0.123231
O O3 0.304228 0.405493 0.928990
O O4 0.806339 0.019683 0.338776
O O5 0.291086 0.628027 0.739425
O O6 0.227691 0.661420 0.362589
O O7 0.266470 0.743837 0.404956
O O8 0.087784 0.673013 0.759871
O O9 0.389153 0.479046 0.189302
O O10 0.946589 0.862925 0.873984
O O11 0.335183 0.467844 0.573977
O O12 0.431783 0.238726 0.680534
O O13 0.787114 0.881078 0.019607
O O14 0.000000 0.500000 0.500000
O O15 0.987876 0.398169 0.750534
O O16 0.876578 0.753108 0.451556
O O17 0.500000 0.000000 0.000000
#
# Coordination Sequence:
#
# PCOD9006603 Si02
#       8
#     2   2   2   2   2   2   2   2
#     4  12  25  44  71 101 141 182 232 289 349 413
#     4  10  21  38  67 107 133 189 232 282 340 410
#     4  11  20  42  70  99 138 187 230 280 349 410
#     4  10  21  40  68  99 145 179 238 281 337 414
#     4  12  23  45  73  99 139 185 227 287 348 413
#     4  12  27  49  70 104 136 177 236 293 350 419
#     4  12  25  48  72  99 135 179 232 289 351 413
#     4  11  25  42  68 103 139 185 231 288 350 416
#
# _framework density 22.161242000000001
#
# number of rings (size 3 to 8) (size 9 to 14) (size 15 to 20)
#    0.000    0.750    6.250    1.875    0.000    1.000 
#    0.000    3.750    0.000    0.000    0.000    0.000 
#    0.000    0.000    0.000    0.000    0.000    0.000 
#
# Total GULP energy -89115.092758 kJ/mol
# GULP energy per Si atom -5569.693297 kJ/mol
# Density = 2.211080 g / cm^3
# Si number density = 22.161242 Si / 1000 Ang^3
#
#
#
# Elastic Constant Matrix: (Units=GPa)
#
#
# Indices 1 2 3 4 5 6 
#
# 1 58.0568 25.3832 30.4227 16.7374 -7.7990 -11.1489
# 2 25.3832 98.5406 35.2460 17.7807 -6.9758 -11.2827
# 3 30.4227 35.2460 112.9713 16.5322 6.4430 -16.6862
# 4 16.7374 17.7807 16.5322 44.9245 8.9556 -2.7618
# 5 -7.7990 -6.9758 6.4430 8.9556 10.5019 5.7004
# 6 -11.1489 -11.2827 -16.6862 -2.7618 5.7004 24.9219
#
#
#
# Elastic Compliance Matrix: (Units=1/GPa)
#
#
# Indices 1 2 3 4 5 6 
#
# 1 0.034006 0.001899 -0.010622 -0.020532 0.053562 -0.005566
# 2 0.001899 0.014739 -0.005503 -0.009502 0.024168 -0.002743
# 3 -0.010622 -0.005503 0.016089 0.007935 -0.034908 0.012393
# 4 -0.020532 -0.009502 0.007935 0.046196 -0.073259 0.013702
# 5 0.053562 0.024168 -0.034908 -0.073259 0.266127 -0.057459
# 6 -0.005566 -0.002743 0.012393 0.013702 -0.057459 0.059352
#
#
# Mechanical properties :
#
#
# Convention : Reuss Voigt Hill
#
# Bulk Modulus (GPa) = 27.48650 50.18585 38.83617
# Shear Modulus (GPa) = 10.48024 27.97079 19.22551
#
# Velocity S-wave (km/s) = 2.17700 3.55653 2.94858
# Velocity P-wave (km/s) = 4.33001 6.28968 5.39950
#
# Compressibility (1/GPa) = 0.03638149
#
# Stress axis : x y z
#
# Youngs Moduli (GPa) = 29.40663 67.84931 62.15307
#
# Poissons Ratio (x) = -0.12884 0.66021
# Poissons Ratio (y) = -0.05584 0.34201
# Poissons Ratio (z) = 0.31237 0.37335
#
# Static dielectric constant tensor:
#      x y z
#    x 1.809480 0.068460 0.122910 
#    y 0.068460 1.756330 -0.005690 
#    z 0.122910 -0.005690 1.873880 
# 
# From -- ./inp_files/112794.got.cif
#   From: 2010.05.17/outbox.cif.g08.bks.cpg/sg2_57_cif.got.tgz:112794.got - 2010.06.03 11:33:40.
