data_PCOD9006757
_publ_section_title
;
Structure prediction by ZEFSAII (Michael W. Deem and Ramdas Pophale) SiO2 
 PCOD9006757
Probable space group: P -1
;
_chemical_formula_sum "Si O2"
_cell_formula_units_Z 16
_cell_length_a 18.488521
_cell_length_b 8.637492
_cell_length_c 5.151820
_cell_angle_alpha 101.854385
_cell_angle_beta 118.799864
_cell_angle_gamma 101.544890
_cell_volume 661.276867
_symmetry_space_group_name_H-M "P -1"
_symmetry_group_IT_number 2
_symmetry_cell_setting 'triclinic'
loop_
_space_group_symop_operation_xyz
x,y,z
-x,-y,-z
loop_
_atom_site_type_symbol
_atom_site_label
_atom_site_fract_x
_atom_site_fract_y
_atom_site_fract_z
Si Si1 0.147767 0.984217 0.308176
Si Si2 0.160338 0.531345 0.559763
Si Si3 0.976118 0.337578 0.709795
Si Si4 0.406297 0.852742 0.254121
Si Si5 0.746962 0.674658 0.094158
Si Si6 0.121115 0.234201 0.022628
Si Si7 0.290597 0.826321 0.551659
Si Si8 0.444388 0.509690 0.156466
O O1 0.187876 0.151138 0.611874
O O2 0.079552 0.830344 0.289169
O O3 0.231975 0.931732 0.379026
O O4 0.100886 0.043429 0.009225
O O5 0.093213 0.618378 0.584232
O O6 0.227474 0.488837 0.849255
O O7 0.218118 0.654169 0.477180
O O8 0.112483 0.351002 0.282581
O O9 0.058253 0.288201 0.733583
O O10 0.000000 0.500000 0.000000
O O11 0.353739 0.820721 0.424073
O O12 0.425248 0.683088 0.162053
O O13 0.500000 0.000000 0.500000
O O14 0.349824 0.893696 0.936091
O O15 0.775601 0.703124 0.853843
O O16 0.649684 0.637192 0.012572
O O17 0.500000 0.500000 0.500000
O O18 0.500000 0.500000 0.000000
#
# Coordination Sequence:
#
# PCOD9006757 Si02
#       8
#     2   2   2   2   2   2   2   2
#     4  10  24  39  66  98 141 184 233 290 352 425
#     4   9  20  41  64  94 132 183 228 289 345 428
#     4   9  19  41  66  98 136 184 232 290 356 421
#     4  12  27  45  71 103 140 182 239 301 365 428
#     4  11  24  41  67  97 138 181 239 291 364 425
#     4  10  21  38  68  97 138 180 233 293 350 428
#     4  11  24  44  69  98 142 184 239 285 356 429
#     4  12  29  47  75 105 145 188 242 303 367 430
#
# _framework density 24.195616000000001
#
# number of rings (size 3 to 8) (size 9 to 14) (size 15 to 20)
#    0.000    1.500    1.250    2.250    8.750    1.000 
#    0.000    0.000    0.000    0.000    0.000    0.000 
#    0.000    0.000    0.000    0.000    0.000    0.000 
#
# Total GULP energy -89349.580413 kJ/mol
# GULP energy per Si atom -5584.348776 kJ/mol
# Density = 2.414055 g / cm^3
# Si number density = 24.195616 Si / 1000 Ang^3
#
#
#
# Elastic Constant Matrix: (Units=GPa)
#
#
# Indices 1 2 3 4 5 6 
#
# 1 160.1069 39.7683 38.2046 -3.2313 12.5687 13.3657
# 2 39.7683 131.2121 30.4581 -2.9276 18.0036 0.7770
# 3 38.2046 30.4581 81.7086 -3.6144 9.7842 7.0392
# 4 -3.2313 -2.9276 -3.6144 42.9970 3.7159 8.4074
# 5 12.5687 18.0036 9.7842 3.7159 37.3638 -3.6157
# 6 13.3657 0.7770 7.0392 8.4074 -3.6157 24.7867
#
#
#
# Elastic Compliance Matrix: (Units=1/GPa)
#
#
# Indices 1 2 3 4 5 6 
#
# 1 0.007696 -0.001475 -0.002432 0.001224 -0.001758 -0.004085
# 2 -0.001475 0.009062 -0.002322 0.000489 -0.003260 0.000529
# 3 -0.002432 -0.002322 0.014964 0.001896 -0.002546 -0.003880
# 4 0.001224 0.000489 0.001896 0.026057 -0.004775 -0.010749
# 5 -0.001758 -0.003260 -0.002546 -0.004775 0.030831 0.007890
# 6 -0.004085 0.000529 -0.003880 -0.010749 0.007890 0.048429
#
#
# Mechanical properties :
#
#
# Convention : Reuss Voigt Hill
#
# Bulk Modulus (GPa) = 51.90934 65.54330 58.72632
# Shear Modulus (GPa) = 32.06776 38.66926 35.36851
#
# Velocity S-wave (km/s) = 3.64449 4.00208 3.82746
# Velocity P-wave (km/s) = 6.26182 6.96443 6.62245
#
# Compressibility (1/GPa) = 0.01926436
#
# Stress axis : x y z
#
# Youngs Moduli (GPa) = 129.93169 110.34537 66.82602
#
# Poissons Ratio (x) = 0.16280 0.16252
# Poissons Ratio (y) = 0.19169 0.15517
# Poissons Ratio (z) = 0.31600 0.25622
#
# Static dielectric constant tensor:
#      x y z
#    x 2.003500 0.030210 -0.005300 
#    y 0.030210 1.916150 -0.044450 
#    z -0.005300 -0.044450 2.096570 
# 
# From -- ./inp_files/107048.got.cif
#   From: 2010.05.17/outbox.cif.g08.bks.cpg/sg2_54_cif.got.tgz:107048.got - 2010.06.03 11:33:40.
