data_PCOD9006705
_publ_section_title
;
Structure prediction by ZEFSAII (Michael W. Deem and Ramdas Pophale) SiO2 
 PCOD9006705
Probable space group: P -1
;
_chemical_formula_sum "Si O2"
_cell_formula_units_Z 16
_cell_length_a 8.058708
_cell_length_b 11.970594
_cell_length_c 14.324428
_cell_angle_alpha 29.852268
_cell_angle_beta 73.947091
_cell_angle_gamma 71.647040
_cell_volume 652.829138
_symmetry_space_group_name_H-M "P -1"
_symmetry_group_IT_number 2
_symmetry_cell_setting 'triclinic'
loop_
_space_group_symop_operation_xyz
x,y,z
-x,-y,-z
loop_
_atom_site_type_symbol
_atom_site_label
_atom_site_fract_x
_atom_site_fract_y
_atom_site_fract_z
Si Si1 0.941039 0.367964 0.693020
Si Si2 0.361146 0.634191 0.051418
Si Si3 0.260260 0.991276 0.953921
Si Si4 0.228947 0.932485 0.593681
Si Si5 0.161517 0.987624 0.352966
Si Si6 0.729378 0.565286 0.969709
Si Si7 0.350574 0.283597 0.445741
Si Si8 0.531438 0.241694 0.647185
O O1 0.843656 0.569186 0.625505
O O2 0.000000 0.500000 0.500000
O O3 0.111365 0.210605 0.821344
O O4 0.797424 0.193120 0.830639
O O5 0.529093 0.684403 0.932321
O O6 0.441883 0.467763 0.242555
O O7 0.255073 0.497196 0.096872
O O8 0.250950 0.852712 0.957880
O O9 0.446662 0.079103 0.850659
O O10 0.242211 0.673299 0.810143
O O11 0.032854 0.049816 0.566798
O O12 0.257025 0.948607 0.467157
O O13 0.349550 0.062981 0.544190
O O14 0.272915 0.848826 0.354677
O O15 0.155192 0.255775 0.141255
O O16 0.417829 0.242676 0.569049
O O17 0.500000 0.500000 0.500000
#
# Coordination Sequence:
#
# PCOD9006705 Si02
#       8
#     2   2   2   2   2   2   2   2
#     4  10  21  38  68  96 132 172 226 282 330 410
#     4  10  21  38  68 104 129 173 231 285 336 413
#     4  10  21  41  63  97 133 173 231 277 338 407
#     4  11  25  42  71 103 135 186 223 287 348 406
#     4  11  25  46  66 102 146 173 232 285 344 411
#     4  11  21  39  68  99 138 174 221 281 346 409
#     4  11  23  42  72  99 133 178 234 279 350 412
#     4  12  26  45  71 100 142 187 232 292 348 409
#
# _framework density 24.508709
#
# number of rings (size 3 to 8) (size 9 to 14) (size 15 to 20)
#    0.000    1.250    3.750    1.875    3.500    1.000 
#    0.000    2.500    5.500    0.000    0.000    0.000 
#    0.000    0.000    0.000    0.000    0.000    0.000 
#
# Total GULP energy -89431.485711 kJ/mol
# GULP energy per Si atom -5589.467857 kJ/mol
# Density = 2.445293 g / cm^3
# Si number density = 24.508709 Si / 1000 Ang^3
#
#
#
# Elastic Constant Matrix: (Units=GPa)
#
#
# Indices 1 2 3 4 5 6 
#
# 1 61.0197 42.9459 5.4015 3.0956 -9.5694 -20.1326
# 2 42.9459 145.3233 51.4186 -5.4466 -9.8054 -20.9683
# 3 5.4015 51.4186 144.3275 8.7727 -6.3045 -0.6383
# 4 3.0956 -5.4466 8.7727 39.4456 -4.8191 -5.1215
# 5 -9.5694 -9.8054 -6.3045 -4.8191 37.0170 2.7139
# 6 -20.1326 -20.9683 -0.6383 -5.1215 2.7139 42.0261
#
#
#
# Elastic Compliance Matrix: (Units=1/GPa)
#
#
# Indices 1 2 3 4 5 6 
#
# 1 0.024025 -0.006336 0.001667 -0.001611 0.004026 0.007917
# 2 -0.006336 0.010597 -0.003688 0.003204 0.000772 0.002536
# 3 0.001667 -0.003688 0.008359 -0.002587 0.000634 -0.001271
# 4 -0.001611 0.003204 -0.002587 0.027404 0.003272 0.003916
# 5 0.004026 0.000772 0.000634 0.003272 0.028730 0.000867
# 6 0.007917 0.002536 -0.001271 0.003916 0.000867 0.029255
#
#
# Mechanical properties :
#
#
# Convention : Reuss Voigt Hill
#
# Bulk Modulus (GPa) = 38.07017 61.13362 49.60190
# Shear Modulus (GPa) = 32.50128 40.42471 36.46300
#
# Velocity S-wave (km/s) = 3.64553 4.06569 3.86133
# Velocity P-wave (km/s) = 5.76948 6.85839 6.33737
#
# Compressibility (1/GPa) = 0.02626728
#
# Stress axis : x y z
#
# Youngs Moduli (GPa) = 41.62285 94.36921 119.62484
#
# Poissons Ratio (x) = 0.59794 -0.19942
# Poissons Ratio (y) = 0.26373 0.44116
# Poissons Ratio (z) = -0.06939 0.34802
#
# Static dielectric constant tensor:
#      x y z
#    x 2.046490 -0.033810 -0.016230 
#    y -0.033810 1.941460 0.053900 
#    z -0.016230 0.053900 2.002750 
# 
# From -- ./inp_files/499648.got.cif
#   From: 2010.05.17/outbox.cif.g08.bks.cpg/sg2_250_cif.got.tgz:499648.got - 2010.06.03 11:33:40.
