data_PCOD9006173
_publ_section_title
;
Structure prediction by ZEFSAII (Michael W. Deem and Ramdas Pophale) SiO2 
 PCOD9006173
Probable space group: P -1
;
_chemical_formula_sum "Si O2"
_cell_formula_units_Z 12
_cell_length_a 5.029615
_cell_length_b 19.450362
_cell_length_c 12.708526
_cell_angle_alpha 27.594615
_cell_angle_beta 73.077052
_cell_angle_gamma 73.938668
_cell_volume 550.460121
_symmetry_space_group_name_H-M "P -1"
_symmetry_group_IT_number 2
_symmetry_cell_setting 'triclinic'
loop_
_space_group_symop_operation_xyz
x,y,z
-x,-y,-z
loop_
_atom_site_type_symbol
_atom_site_label
_atom_site_fract_x
_atom_site_fract_y
_atom_site_fract_z
Si Si1 0.214899 0.092821 0.414161
Si Si2 0.943279 0.066315 0.704399
Si Si3 0.333797 0.673957 0.489064
Si Si4 0.202374 0.358353 0.899569
Si Si5 0.774351 0.449793 0.677479
Si Si6 0.586861 0.069669 0.009918
O O1 0.111310 0.102084 0.532742
O O2 0.500000 0.000000 0.500000
O O3 0.238247 0.248648 0.140651
O O4 0.000000 0.000000 0.500000
O O5 0.163311 0.013289 0.842013
O O6 0.763884 0.213221 0.562300
O O7 0.687561 0.229805 0.746021
O O8 0.155962 0.528750 0.711453
O O9 0.938197 0.333711 0.891644
O O10 0.293119 0.054844 0.123619
O O11 0.355950 0.402792 0.447947
O O12 0.490760 0.372050 0.782566
O O13 0.000000 0.500000 0.500000
O O14 0.500000 0.000000 0.000000
#
# Coordination Sequence:
#
# PCOD9006173 Si02
#       6
#     2   2   2   2   2   2
#     4  12  27  49  65  90 134 178 229 269 314 399
#     4  11  24  41  67  97 129 180 214 265 333 378
#     4   9  23  38  68  96 134 155 220 271 329 386
#     4  10  24  42  65  96 126 170 221 270 321 382
#     4  10  22  39  62  97 132 162 208 265 333 384
#     4  10  21  38  65 101 134 164 208 267 332 392
#
# _framework density 21.799945999999998
#
# number of rings (size 3 to 8) (size 9 to 14) (size 15 to 20)
#    1.000    0.667    0.000    4.500    7.000    4.667 
#    0.000    0.833    0.000    0.000    0.000    0.000 
#    0.000    0.000    0.000    0.000    0.000    0.000 
#
# Total GULP energy -66919.968419 kJ/mol
# GULP energy per Si atom -5576.664035 kJ/mol
# Density = 2.175033 g / cm^3
# Si number density = 21.799946 Si / 1000 Ang^3
#
#
#
# Elastic Constant Matrix: (Units=GPa)
#
#
# Indices 1 2 3 4 5 6 
#
# 1 163.5048 44.4974 40.8643 4.5899 14.8618 -16.8373
# 2 44.4974 107.3021 44.7962 16.8403 11.0175 -34.0322
# 3 40.8643 44.7962 130.0422 7.5833 16.3596 -13.2083
# 4 4.5899 16.8403 7.5833 34.7647 2.2993 -9.2405
# 5 14.8618 11.0175 16.3596 2.2993 39.5899 1.8121
# 6 -16.8373 -34.0322 -13.2083 -9.2405 1.8121 34.3296
#
#
#
# Elastic Compliance Matrix: (Units=1/GPa)
#
#
# Indices 1 2 3 4 5 6 
#
# 1 0.007255 -0.001963 -0.001283 0.000766 -0.001756 0.001417
# 2 -0.001963 0.016556 -0.003145 -0.003284 -0.002999 0.013514
# 3 -0.001283 -0.003145 0.009510 -0.000215 -0.002560 -0.000011
# 4 0.000766 -0.003284 -0.000215 0.031909 -0.001399 0.005700
# 5 -0.001756 -0.002999 -0.002560 -0.001399 0.028198 -0.006684
# 6 0.001417 0.013514 -0.000011 0.005700 -0.006684 0.045104
#
#
# Mechanical properties :
#
#
# Convention : Reuss Voigt Hill
#
# Bulk Modulus (GPa) = 48.69001 73.46278 61.07639
# Shear Modulus (GPa) = 31.61341 39.78294 35.69817
#
# Velocity S-wave (km/s) = 3.81223 4.27653 4.05104
# Velocity P-wave (km/s) = 6.46226 7.62606 7.06815
#
# Compressibility (1/GPa) = 0.02053809
#
# Stress axis : x y z
#
# Youngs Moduli (GPa) = 137.83335 60.40117 105.15396
#
# Poissons Ratio (x) = 0.11859 0.13495
# Poissons Ratio (y) = 0.27061 0.33069
# Poissons Ratio (z) = 0.17688 0.18995
#
# Static dielectric constant tensor:
#      x y z
#    x 1.812210 0.040620 -0.038970 
#    y 0.040620 1.908700 -0.056180 
#    z -0.038970 -0.056180 1.847930 
# 
# From -- ./inp_files/368221.got.cif
#   From: 2010.05.17/outbox.cif.g08.bks.cpg/sg2_185_cif.got.tgz:368221.got - 2010.06.03 11:33:40.
