data_PCOD9006250
_publ_section_title
;
Structure prediction by ZEFSAII (Michael W. Deem and Ramdas Pophale) SiO2 
 PCOD9006250
Probable space group: P -1
;
_chemical_formula_sum "Si O2"
_cell_formula_units_Z 16
_cell_length_a 9.749600
_cell_length_b 8.739157
_cell_length_c 12.979801
_cell_angle_alpha 97.160766
_cell_angle_beta 113.430981
_cell_angle_gamma 130.190411
_cell_volume 650.442503
_symmetry_space_group_name_H-M "P -1"
_symmetry_group_IT_number 2
_symmetry_cell_setting 'triclinic'
loop_
_space_group_symop_operation_xyz
x,y,z
-x,-y,-z
loop_
_atom_site_type_symbol
_atom_site_label
_atom_site_fract_x
_atom_site_fract_y
_atom_site_fract_z
Si Si1 0.088054 0.475483 0.209839
Si Si2 0.594604 0.401186 0.002277
Si Si3 0.735092 0.971493 0.970440
Si Si4 0.761132 0.679789 0.623912
Si Si5 0.480565 0.102133 0.749516
Si Si6 0.014513 0.832015 0.506612
Si Si7 0.034824 0.920432 0.150817
Si Si8 0.137649 0.573556 0.656377
O O1 0.220263 0.424201 0.284511
O O2 0.272386 0.711571 0.215956
O O3 0.868994 0.234343 0.061639
O O4 0.002479 0.491710 0.288779
O O5 0.498322 0.242750 0.857887
O O6 0.504339 0.231658 0.057311
O O7 0.500000 0.500000 0.000000
O O8 0.866706 0.643332 0.091481
O O9 0.762014 0.958636 0.857430
O O10 0.883980 0.944402 0.061024
O O11 0.500000 0.500000 0.500000
O O12 0.914590 0.729735 0.583203
O O13 0.865591 0.928211 0.703978
O O14 0.283988 0.999055 0.600852
O O15 0.369142 0.858396 0.741600
O O16 0.856823 0.607203 0.364747
O O17 0.000000 0.000000 0.500000
O O18 0.000000 0.500000 0.500000
#
# Coordination Sequence:
#
# PCOD9006250 Si02
#       8
#     2   2   2   2   2   2   2   2
#     4  11  19  35  61  89 123 155 203 251 305 357
#     4  10  17  28  52  87 121 149 192 254 304 345
#     4   9  16  29  51  83 119 148 190 253 301 341
#     4  11  22  39  56  86 129 163 202 250 296 368
#     4  11  20  35  61  91 124 157 199 256 306 355
#     4  11  23  42  58  85 124 164 206 246 304 368
#     4   9  18  31  50  82 119 152 195 243 304 348
#     4  10  21  39  58  85 126 155 205 255 300 359
#
# _framework density 24.598641000000001
#
# number of rings (size 3 to 8) (size 9 to 14) (size 15 to 20)
#    0.000    1.750    5.000    2.250    1.750    2.000 
#    4.500    0.000    0.000    0.000    0.000    9.625 
#    0.000    0.000    0.000    0.000    0.000    0.000 
#
# Total GULP energy -89537.493676 kJ/mol
# GULP energy per Si atom -5596.093355 kJ/mol
# Density = 2.454265 g / cm^3
# Si number density = 24.598641 Si / 1000 Ang^3
#
#
#
# Elastic Constant Matrix: (Units=GPa)
#
#
# Indices 1 2 3 4 5 6 
#
# 1 95.9254 55.7875 44.2425 15.3211 -23.8327 15.6641
# 2 55.7875 162.7117 43.8104 35.9557 -20.1011 15.7361
# 3 44.2425 43.8104 97.8334 36.3171 -39.8385 4.3302
# 4 15.3211 35.9557 36.3171 47.4496 -8.2778 0.0123
# 5 -23.8327 -20.1011 -39.8385 -8.2778 52.8172 -5.9275
# 6 15.6641 15.7361 4.3302 0.0123 -5.9275 49.5869
#
#
#
# Elastic Compliance Matrix: (Units=1/GPa)
#
#
# Indices 1 2 3 4 5 6 
#
# 1 0.015755 -0.003971 -0.005491 0.002385 0.001486 -0.003060
# 2 -0.003971 0.008899 0.000213 -0.005498 0.000726 -0.001500
# 3 -0.005491 0.000213 0.022841 -0.013633 0.012831 0.001209
# 4 0.002385 -0.005498 -0.013633 0.033889 -0.005822 0.001478
# 5 0.001486 0.000726 0.012831 -0.005822 0.028828 0.001627
# 6 -0.003060 -0.001500 0.001209 0.001478 0.001627 0.021698
#
#
# Mechanical properties :
#
#
# Convention : Reuss Voigt Hill
#
# Bulk Modulus (GPa) = 34.48424 71.57238 53.02831
# Shear Modulus (GPa) = 31.23561 44.14608 37.69085
#
# Velocity S-wave (km/s) = 3.56731 4.24093 3.91862
# Velocity P-wave (km/s) = 5.56927 7.28971 6.48678
#
# Compressibility (1/GPa) = 0.02899875
#
# Stress axis : x y z
#
# Youngs Moduli (GPa) = 63.47344 112.36635 43.78072
#
# Poissons Ratio (x) = 0.44615 0.24040
# Poissons Ratio (y) = 0.25202 -0.00934
# Poissons Ratio (z) = 0.34853 -0.02397
#
# Static dielectric constant tensor:
#      x y z
#    x 2.030160 -0.075480 0.060180 
#    y -0.075480 1.987160 -0.029710 
#    z 0.060180 -0.029710 1.968880 
# 
# From -- ./inp_files/495479.got.cif
#   From: 2010.05.17/outbox.cif.g08.bks.cpg/sg2_248_cif.got.tgz:495479.got - 2010.06.03 11:33:40.
