data_PCOD9006206
_publ_section_title
;
Structure prediction by ZEFSAII (Michael W. Deem and Ramdas Pophale) SiO2 
 PCOD9006206
Probable space group: P -1
;
_chemical_formula_sum "Si O2"
_cell_formula_units_Z 16
_cell_length_a 9.427381
_cell_length_b 5.420896
_cell_length_c 13.731974
_cell_angle_alpha 72.905974
_cell_angle_beta 89.182963
_cell_angle_gamma 83.689869
_cell_volume 666.584713
_symmetry_space_group_name_H-M "P -1"
_symmetry_group_IT_number 2
_symmetry_cell_setting 'triclinic'
loop_
_space_group_symop_operation_xyz
x,y,z
-x,-y,-z
loop_
_atom_site_type_symbol
_atom_site_label
_atom_site_fract_x
_atom_site_fract_y
_atom_site_fract_z
Si Si1 0.628594 0.381030 0.580930
Si Si2 0.059195 0.839249 0.611522
Si Si3 0.470104 0.228637 0.796444
Si Si4 0.750908 0.817643 0.634834
Si Si5 0.112450 0.060330 0.908618
Si Si6 0.594421 0.668170 0.846417
Si Si7 0.171185 0.495929 0.981685
Si Si8 0.161854 0.256904 0.697430
O O1 0.500000 0.500000 0.500000
O O2 0.568028 0.300508 0.695338
O O3 0.732065 0.601411 0.578096
O O4 0.702343 0.111946 0.566935
O O5 0.151892 0.024921 0.649022
O O6 0.128247 0.547915 0.624529
O O7 0.000000 0.000000 0.500000
O O8 0.911782 0.805056 0.673178
O O9 0.492934 0.444992 0.852037
O O10 0.315442 0.238971 0.748188
O O11 0.521386 0.934766 0.862740
O O12 0.650252 0.755037 0.731412
O O13 0.055306 0.205854 0.794409
O O14 0.207987 0.253968 0.938420
O O15 0.187243 0.780900 0.908156
O O16 0.000000 0.000000 0.000000
O O17 0.731360 0.550559 0.919714
O O18 0.000000 0.500000 0.000000
#
# Coordination Sequence:
#
# PCOD9006206 Si02
#       8
#     2   2   2   2   2   2   2   2
#     4  10  21  38  65  88 124 168 218 272 314 392
#     4  12  28  43  68  99 135 178 218 277 336 388
#     4  10  23  41  63  91 128 181 213 260 333 382
#     4  10  23  38  61  96 124 164 221 262 333 365
#     4  10  23  39  65  98 124 170 220 265 328 386
#     4  10  21  41  65  95 130 168 215 272 311 393
#     4  10  21  38  65  97 130 159 217 269 326 381
#     4  12  26  46  68  94 141 174 222 271 330 405
#
# _framework density 24.002952000000001
#
# number of rings (size 3 to 8) (size 9 to 14) (size 15 to 20)
#    0.000    1.500    0.000    3.750   10.500    0.000 
#    0.000    3.750    0.000    0.000    0.000    0.000 
#    0.000    0.000    0.000    0.000    0.000    0.000 
#
# Total GULP energy -89455.275134 kJ/mol
# GULP energy per Si atom -5590.954696 kJ/mol
# Density = 2.394832 g / cm^3
# Si number density = 24.002952 Si / 1000 Ang^3
#
#
#
# Elastic Constant Matrix: (Units=GPa)
#
#
# Indices 1 2 3 4 5 6 
#
# 1 86.5970 53.6818 0.4218 -7.0206 18.7457 16.3733
# 2 53.6818 221.8634 52.9647 -21.1225 21.9618 42.3137
# 3 0.4218 52.9647 81.5626 -18.4663 10.7271 11.9842
# 4 -7.0206 -21.1225 -18.4663 40.7402 -2.2714 10.8784
# 5 18.7457 21.9618 10.7271 -2.2714 46.2693 2.8997
# 6 16.3733 42.3137 11.9842 10.8784 2.8997 35.6977
#
#
#
# Elastic Compliance Matrix: (Units=1/GPa)
#
#
# Indices 1 2 3 4 5 6 
#
# 1 0.016062 -0.002633 0.004484 0.004937 -0.005629 -0.006799
# 2 -0.002633 0.008042 -0.002659 0.004779 -0.001349 -0.008779
# 3 0.004484 -0.002659 0.017584 0.009100 -0.003728 -0.007278
# 4 0.004937 0.004779 0.009100 0.037762 -0.003131 -0.022238
# 5 -0.005629 -0.001349 -0.003728 -0.003131 0.024971 0.004358
# 6 -0.006799 -0.008779 -0.007278 -0.022238 0.004358 0.050404
#
#
# Mechanical properties :
#
#
# Convention : Reuss Voigt Hill
#
# Bulk Modulus (GPa) = 24.95543 67.12884 46.04214
# Shear Modulus (GPa) = 29.44648 43.40508 36.42578
#
# Velocity S-wave (km/s) = 3.50635 4.25705 3.89981
# Velocity P-wave (km/s) = 5.17803 7.22433 6.28502
#
# Compressibility (1/GPa) = 0.04007144
#
# Stress axis : x y z
#
# Youngs Moduli (GPa) = 62.25775 124.34577 56.86955
#
# Poissons Ratio (x) = 0.32739 -0.25498
# Poissons Ratio (y) = 0.16392 0.15123
# Poissons Ratio (z) = -0.27914 0.33067
#
# Static dielectric constant tensor:
#      x y z
#    x 1.971560 0.002780 -0.096340 
#    y 0.002780 1.925440 -0.004190 
#    z -0.096340 -0.004190 1.910330 
# 
# From -- ./inp_files/488201.got.cif
#   From: 2010.05.17/outbox.cif.g08.bks.cpg/sg2_245_cif.got.tgz:488201.got - 2010.06.03 11:33:40.
