data_PCOD9006213
_publ_section_title
;
Structure prediction by ZEFSAII (Michael W. Deem and Ramdas Pophale) SiO2 
 PCOD9006213
Probable space group: P -1
;
_chemical_formula_sum "Si O2"
_cell_formula_units_Z 16
_cell_length_a 18.434198
_cell_length_b 15.302425
_cell_length_c 6.354967
_cell_angle_alpha 77.432023
_cell_angle_beta 116.558191
_cell_angle_gamma 149.358972
_cell_volume 760.368816
_symmetry_space_group_name_H-M "P -1"
_symmetry_group_IT_number 2
_symmetry_cell_setting 'triclinic'
loop_
_space_group_symop_operation_xyz
x,y,z
-x,-y,-z
loop_
_atom_site_type_symbol
_atom_site_label
_atom_site_fract_x
_atom_site_fract_y
_atom_site_fract_z
Si Si1 0.632676 0.172054 0.429339
Si Si2 0.947110 0.694157 0.510703
Si Si3 0.392537 0.355918 0.127905
Si Si4 0.141822 0.063024 0.622700
Si Si5 0.855377 0.493936 0.870925
Si Si6 0.901599 0.318885 0.549942
Si Si7 0.375996 0.671844 0.965037
Si Si8 0.530672 0.649397 0.360699
O O1 0.781788 0.355074 0.674572
O O2 0.712514 0.169207 0.397711
O O3 0.573279 0.197651 0.192748
O O4 0.500000 0.000000 0.500000
O O5 0.902467 0.625809 0.727285
O O6 0.773404 0.524300 0.247370
O O7 0.058630 0.724123 0.531234
O O8 0.046928 0.881257 0.538579
O O9 0.384832 0.439275 0.212397
O O10 0.469907 0.356907 0.384441
O O11 0.500000 0.500000 0.000000
O O12 0.236594 0.159389 0.918649
O O13 0.290768 0.215839 0.563154
O O14 0.000000 0.000000 0.500000
O O15 0.711041 0.370688 0.919201
O O16 0.017181 0.623848 0.147860
O O17 0.000000 0.500000 0.500000
O O18 0.504777 0.720961 0.183933
#
# Coordination Sequence:
#
# PCOD9006213 Si02
#       8
#     2   2   2   2   2   2   2   2
#     4  11  24  39  63  95 128 172 217 273 324 378
#     4  10  23  39  66  97 125 170 218 268 316 389
#     4   9  21  41  66  91 121 168 207 253 324 387
#     4  11  24  41  64  96 131 161 214 265 319 384
#     4  10  21  38  65  89 126 171 213 266 322 383
#     4  11  20  42  65  88 127 173 221 259 324 388
#     4  10  22  41  61  93 129 166 218 260 323 390
#     4  10  22  41  66  92 132 171 205 265 325 384
#
# _framework density 21.04242
#
# number of rings (size 3 to 8) (size 9 to 14) (size 15 to 20)
#    0.000    1.750    3.750    1.125    0.000   12.000 
#    0.000    0.000    0.000    0.000    0.000    0.000 
#    0.000    0.000    0.000    0.000    0.000    0.000 
#
# Total GULP energy -89225.467798 kJ/mol
# GULP energy per Si atom -5576.591737 kJ/mol
# Density = 2.099453 g / cm^3
# Si number density = 21.042420 Si / 1000 Ang^3
#
#
#
# Elastic Constant Matrix: (Units=GPa)
#
#
# Indices 1 2 3 4 5 6 
#
# 1 104.0642 50.8655 38.7287 -12.9770 19.2245 -8.4932
# 2 50.8655 101.6681 24.6376 -21.5684 4.2697 -4.7534
# 3 38.7287 24.6376 119.5567 -25.4979 2.7301 -5.3954
# 4 -12.9770 -21.5684 -25.4979 30.8979 -5.5741 -5.5368
# 5 19.2245 4.2697 2.7301 -5.5741 25.6281 3.3936
# 6 -8.4932 -4.7534 -5.3954 -5.5368 3.3936 29.0316
#
#
#
# Elastic Compliance Matrix: (Units=1/GPa)
#
#
# Indices 1 2 3 4 5 6 
#
# 1 0.016989 -0.007437 -0.004160 -0.003007 -0.012223 0.003835
# 2 -0.007437 0.015195 0.001340 0.009787 0.004786 0.001868
# 3 -0.004160 0.001340 0.011572 0.009831 0.003455 0.002624
# 4 -0.003007 0.009787 0.009831 0.049622 0.008918 0.010971
# 5 -0.012223 0.004786 0.003455 0.008918 0.049793 -0.006270
# 6 0.003835 0.001868 0.002624 0.010971 -0.006270 0.039186
#
#
# Mechanical properties :
#
#
# Convention : Reuss Voigt Hill
#
# Bulk Modulus (GPa) = 43.02501 61.52807 52.27654
# Shear Modulus (GPa) = 23.73983 31.18200 27.46092
#
# Velocity S-wave (km/s) = 3.36250 3.85367 3.61643
# Velocity P-wave (km/s) = 5.96375 7.00747 6.50657
#
# Compressibility (1/GPa) = 0.02324229
#
# Stress axis : x y z
#
# Youngs Moduli (GPa) = 58.86248 65.81303 86.41662
#
# Poissons Ratio (x) = 0.48944 0.35948
# Poissons Ratio (y) = 0.43775 -0.11582
# Poissons Ratio (z) = 0.24486 -0.08820
#
# Static dielectric constant tensor:
#      x y z
#    x 1.772890 -0.001670 -0.030770 
#    y -0.001670 1.760240 -0.023810 
#    z -0.030770 -0.023810 1.787300 
# 
# From -- ./inp_files/110821.got.cif
#   From: 2010.05.17/outbox.cif.g08.bks.cpg/sg2_56_cif.got.tgz:110821.got - 2010.06.03 11:33:40.
