data_PCOD9006280
_publ_section_title
;
Structure prediction by ZEFSAII (Michael W. Deem and Ramdas Pophale) SiO2 
 PCOD9006280
Probable space group: P -1
;
_chemical_formula_sum "Si O2"
_cell_formula_units_Z 16
_cell_length_a 9.040611
_cell_length_b 13.914766
_cell_length_c 8.748540
_cell_angle_alpha 48.652884
_cell_angle_beta 65.822016
_cell_angle_gamma 81.487685
_cell_volume 741.563356
_symmetry_space_group_name_H-M "P -1"
_symmetry_group_IT_number 2
_symmetry_cell_setting 'triclinic'
loop_
_space_group_symop_operation_xyz
x,y,z
-x,-y,-z
loop_
_atom_site_type_symbol
_atom_site_label
_atom_site_fract_x
_atom_site_fract_y
_atom_site_fract_z
Si Si1 0.279061 0.824258 0.896032
Si Si2 0.074733 0.301856 0.679913
Si Si3 0.182554 0.099035 0.637125
Si Si4 0.317390 0.445662 0.686758
Si Si5 0.364443 0.215970 0.128608
Si Si6 0.092954 0.063698 0.244855
Si Si7 0.910965 0.289425 0.157635
Si Si8 0.964274 0.416281 0.300125
O O1 0.443670 0.785138 0.931419
O O2 0.259349 0.781524 0.769553
O O3 0.276169 0.977577 0.748676
O O4 0.112302 0.749314 0.127242
O O5 0.164230 0.188279 0.695197
O O6 0.201932 0.380133 0.664663
O O7 0.041831 0.385799 0.458190
O O8 0.271496 0.179784 0.368777
O O9 0.993293 0.028644 0.753246
O O10 0.500000 0.500000 0.500000
O O11 0.223999 0.562824 0.644549
O O12 0.331750 0.349711 0.924758
O O13 0.283445 0.101786 0.163915
O O14 0.030955 0.201456 0.122797
O O15 0.000000 0.000000 0.500000
O O16 0.958035 0.299594 0.304606
O O17 0.939775 0.441164 0.940834
#
# Coordination Sequence:
#
# PCOD9006280 Si02
#       8
#     2   2   2   2   2   2   2   2
#     4  11  23  43  67  99 132 168 210 268 329 382
#     4  12  25  43  67  95 132 173 215 263 329 385
#     4  10  23  43  69  94 127 171 218 265 318 387
#     4  12  26  43  62  94 134 173 213 266 323 381
#     4  11  22  41  67  96 129 169 218 262 318 381
#     4   9  17  37  64  93 122 161 207 262 315 368
#     4  10  21  38  65  93 121 167 221 260 309 383
#     4  11  22  40  64  90 127 167 218 262 310 377
#
# _framework density 21.576041
#
# number of rings (size 3 to 8) (size 9 to 14) (size 15 to 20)
#    0.000    1.250    2.500    4.125    3.500    1.000 
#    0.000    5.000    0.000    0.000    0.000    0.000 
#    0.000    0.000    0.000    0.000    0.000    0.000 
#
# Total GULP energy -89202.924414 kJ/mol
# GULP energy per Si atom -5575.182776 kJ/mol
# Density = 2.152693 g / cm^3
# Si number density = 21.576041 Si / 1000 Ang^3
#
#
#
# Elastic Constant Matrix: (Units=GPa)
#
#
# Indices 1 2 3 4 5 6 
#
# 1 154.9199 22.7657 37.0253 -0.5124 0.1056 5.8083
# 2 22.7657 76.4157 4.3363 -0.0912 -7.4687 5.9173
# 3 37.0253 4.3363 86.6790 -2.5349 7.6371 2.6993
# 4 -0.5124 -0.0912 -2.5349 19.1794 -3.4308 5.6770
# 5 0.1056 -7.4687 7.6371 -3.4308 37.4034 -0.0809
# 6 5.8083 5.9173 2.6993 5.6770 -0.0809 20.9939
#
#
#
# Elastic Compliance Matrix: (Units=1/GPa)
#
#
# Indices 1 2 3 4 5 6 
#
# 1 0.007526 -0.001952 -0.003096 0.000174 0.000235 -0.001180
# 2 -0.001952 0.014266 0.000029 0.001722 0.002998 -0.003939
# 3 -0.003096 0.000029 0.013167 0.001585 -0.002531 -0.001283
# 4 0.000174 0.001722 0.001585 0.058182 0.005321 -0.016450
# 5 0.000235 0.002998 -0.002531 0.005321 0.028334 -0.001914
# 6 -0.001180 -0.003939 -0.001283 -0.016450 -0.001914 0.053675
#
#
# Mechanical properties :
#
#
# Convention : Reuss Voigt Hill
#
# Bulk Modulus (GPa) = 40.12585 49.58547 44.85566
# Shear Modulus (GPa) = 25.84014 32.44115 29.14065
#
# Velocity S-wave (km/s) = 3.46444 3.88180 3.67904
# Velocity P-wave (km/s) = 5.88565 6.56679 6.23553
#
# Compressibility (1/GPa) = 0.02492159
#
# Stress axis : x y z
#
# Youngs Moduli (GPa) = 132.86510 70.09544 75.94622
#
# Poissons Ratio (x) = 0.13683 0.23514
# Poissons Ratio (y) = 0.25936 -0.00220
# Poissons Ratio (z) = 0.41137 -0.00203
#
# Static dielectric constant tensor:
#      x y z
#    x 1.855200 0.040560 0.113420 
#    y 0.040560 1.820660 0.036810 
#    z 0.113420 0.036810 1.992300 
# 
# From -- ./inp_files/199436.got.cif
#   From: 2010.05.17/outbox.cif.g08.bks.cpg/sg2_100_cif.got.tgz:199436.got - 2010.06.03 11:33:40.
