data_PCOD9006740
_publ_section_title
;
Structure prediction by ZEFSAII (Michael W. Deem and Ramdas Pophale) SiO2 
 PCOD9006740
Probable space group: P -1
;
_chemical_formula_sum "Si O2"
_cell_formula_units_Z 16
_cell_length_a 7.547124
_cell_length_b 19.974683
_cell_length_c 5.452687
_cell_angle_alpha 86.181539
_cell_angle_beta 112.959371
_cell_angle_gamma 61.689443
_cell_volume 633.447550
_symmetry_space_group_name_H-M "P -1"
_symmetry_group_IT_number 2
_symmetry_cell_setting 'triclinic'
loop_
_space_group_symop_operation_xyz
x,y,z
-x,-y,-z
loop_
_atom_site_type_symbol
_atom_site_label
_atom_site_fract_x
_atom_site_fract_y
_atom_site_fract_z
Si Si1 0.868417 0.543799 0.667132
Si Si2 0.920970 0.248596 0.440942
Si Si3 0.126641 0.045071 0.226816
Si Si4 0.748546 0.010328 0.191710
Si Si5 0.365064 0.189826 0.957179
Si Si6 0.349410 0.629053 0.366993
Si Si7 0.092016 0.319882 0.152162
Si Si8 0.290827 0.786279 0.057819
O O1 0.614031 0.560046 0.517378
O O2 0.850967 0.627862 0.662207
O O3 0.000000 0.500000 0.500000
O O4 0.000000 0.500000 0.000000
O O5 0.746008 0.338821 0.421128
O O6 0.125026 0.200978 0.755002
O O7 0.054004 0.257772 0.288008
O O8 0.771626 0.216938 0.261558
O O9 0.983572 0.005340 0.241146
O O10 0.214052 0.046947 0.546842
O O11 0.935216 0.132184 0.001931
O O12 0.305964 0.004660 0.110618
O O13 0.555960 0.099622 0.157883
O O14 0.497280 0.203987 0.808375
O O15 0.286515 0.264816 0.075393
O O16 0.335173 0.706932 0.224525
O O17 0.154905 0.622332 0.129717
#
# Coordination Sequence:
#
# PCOD9006740 Si02
#       8
#     2   2   2   2   2   2   2   2
#     4  12  30  48  74 108 138 170 220 268 338 410
#     4  10  22  40  66  96 132 168 242 262 328 390
#     4   9  19  35  56  91 132 171 221 278 339 387
#     4   9  19  35  56  91 132 171 221 278 339 387
#     4  10  21  38  68  94 127 180 227 279 328 394
#     4  10  24  44  70  97 136 177 224 271 329 395
#     4  10  24  44  70  97 136 177 224 271 329 395
#     4  10  21  38  68  94 127 180 227 279 328 394
#
# _framework density 25.258606
#
# number of rings (size 3 to 8) (size 9 to 14) (size 15 to 20)
#    0.000    2.000    0.000    1.500   12.250    1.000 
#    2.250    1.250    0.000    0.000    0.000    0.000 
#    0.000    0.000    0.000    0.000    0.000    0.000 
#
# Total GULP energy -89323.330429 kJ/mol
# GULP energy per Si atom -5582.708152 kJ/mol
# Density = 2.520112 g / cm^3
# Si number density = 25.258606 Si / 1000 Ang^3
#
#
#
# Elastic Constant Matrix: (Units=GPa)
#
#
# Indices 1 2 3 4 5 6 
#
# 1 89.5171 24.7359 43.8565 -7.7817 27.7488 -15.5956
# 2 24.7359 105.5486 45.0352 0.2345 7.3789 -24.4145
# 3 43.8565 45.0352 93.2864 1.8669 1.3511 -23.8403
# 4 -7.7817 0.2345 1.8669 44.6696 6.3875 1.8818
# 5 27.7488 7.3789 1.3511 6.3875 44.2303 -9.1454
# 6 -15.5956 -24.4145 -23.8403 1.8818 -9.1454 44.2811
#
#
#
# Elastic Compliance Matrix: (Units=1/GPa)
#
#
# Indices 1 2 3 4 5 6 
#
# 1 0.020600 0.000100 -0.009945 0.006016 -0.013741 -0.001138
# 2 0.000100 0.012642 -0.005115 0.000170 -0.001214 0.003993
# 3 -0.009945 -0.005115 0.019351 -0.003954 0.008309 0.005980
# 4 0.006016 0.000170 -0.003954 0.024823 -0.007801 -0.002582
# 5 -0.013741 -0.001214 0.008309 -0.007801 0.033594 0.006234
# 6 -0.001138 0.003993 0.005980 -0.002582 0.006234 0.029001
#
#
# Mechanical properties :
#
#
# Convention : Reuss Voigt Hill
#
# Bulk Modulus (GPa) = 44.10636 57.28970 50.69803
# Shear Modulus (GPa) = 28.17084 38.28451 33.22767
#
# Velocity S-wave (km/s) = 3.34323 3.89742 3.63092
# Velocity P-wave (km/s) = 5.69234 6.55620 6.13948
#
# Compressibility (1/GPa) = 0.02267247
#
# Stress axis : x y z
#
# Youngs Moduli (GPa) = 48.54400 79.10379 51.67604
#
# Poissons Ratio (x) = -0.00788 0.51391
# Poissons Ratio (y) = -0.00484 0.26433
# Poissons Ratio (z) = 0.48276 0.40462
#
# Static dielectric constant tensor:
#      x y z
#    x 1.941200 0.029680 -0.008100 
#    y 0.029680 2.017880 0.043620 
#    z -0.008100 0.043620 2.171100 
# 
# From -- ./inp_files/53319.got.cif
#   From: 2010.05.17/outbox.cif.g08.bks.cpg/sg2_27_cif.got.tgz:53319.got - 2010.06.03 11:33:40.
