data_PCOD9006181
_publ_section_title
;
Structure prediction by ZEFSAII (Michael W. Deem and Ramdas Pophale) SiO2 
 PCOD9006181
Probable space group: P -1
;
_chemical_formula_sum "Si O2"
_cell_formula_units_Z 16
_cell_length_a 8.079128
_cell_length_b 5.493105
_cell_length_c 19.116748
_cell_angle_alpha 64.423377
_cell_angle_beta 124.276123
_cell_angle_gamma 99.735687
_cell_volume 629.230003
_symmetry_space_group_name_H-M "P -1"
_symmetry_group_IT_number 2
_symmetry_cell_setting 'triclinic'
loop_
_space_group_symop_operation_xyz
x,y,z
-x,-y,-z
loop_
_atom_site_type_symbol
_atom_site_label
_atom_site_fract_x
_atom_site_fract_y
_atom_site_fract_z
Si Si1 0.329087 0.534503 0.066816
Si Si2 0.133363 0.159049 0.266266
Si Si3 0.261941 0.571622 0.794544
Si Si4 0.052554 0.093610 0.093649
Si Si5 0.614569 0.774063 0.502050
Si Si6 0.338722 0.612511 0.219643
Si Si7 0.308808 0.120389 0.653864
Si Si8 0.005771 0.626952 0.352478
O O1 0.555425 0.495660 0.098680
O O2 0.191689 0.285545 0.059252
O O3 0.401314 0.544885 0.164057
O O4 0.179343 0.797151 0.981564
O O5 0.122517 0.116085 0.186670
O O6 0.307373 0.355675 0.291553
O O7 0.926680 0.323538 0.216459
O O8 0.647693 0.886110 0.417386
O O9 0.170532 0.347372 0.751575
O O10 0.281724 0.828023 0.715785
O O11 0.123877 0.784672 0.132862
O O12 0.500000 0.500000 0.500000
O O13 0.140864 0.873877 0.341607
O O14 0.846604 0.647505 0.590584
O O15 0.500000 0.000000 0.500000
O O16 0.497026 0.779572 0.274353
O O17 0.115695 0.320377 0.610266
#
# Coordination Sequence:
#
# PCOD9006181 Si02
#       8
#     2   2   2   2   2   2   2   2
#     4  10  21  38  65 103 140 194 243 301 368 437
#     4  10  25  41  69 104 142 195 241 311 366 440
#     4  11  23  43  73  99 143 189 247 299 370 448
#     4  10  21  39  63 100 148 187 246 306 363 435
#     4  12  33  51  80 118 154 192 250 317 380 462
#     4  11  21  42  71 103 140 192 249 304 364 437
#     4  11  26  47  79 106 145 200 246 305 378 453
#     4  11  26  51  74 106 149 197 245 307 377 453
#
# _framework density 25.427902
#
# number of rings (size 3 to 8) (size 9 to 14) (size 15 to 20)
#    0.000    1.250    2.500    1.500    8.750    1.000 
#    0.000    2.500    0.000    0.000    0.000    0.000 
#    0.000    0.000    0.000    0.000    0.000    0.000 
#
# Total GULP energy -89434.300049 kJ/mol
# GULP energy per Si atom -5589.643753 kJ/mol
# Density = 2.537003 g / cm^3
# Si number density = 25.427902 Si / 1000 Ang^3
#
#
#
# Elastic Constant Matrix: (Units=GPa)
#
#
# Indices 1 2 3 4 5 6 
#
# 1 73.3787 35.4455 15.7192 -9.1560 -1.1728 -8.5655
# 2 35.4455 93.9708 28.5075 -2.2286 6.5708 1.1013
# 3 15.7192 28.5075 128.5922 -13.7765 32.3483 -3.5500
# 4 -9.1560 -2.2286 -13.7765 38.2439 -8.6166 12.2377
# 5 -1.1728 6.5708 32.3483 -8.6166 21.6314 1.6066
# 6 -8.5655 1.1013 -3.5500 12.2377 1.6066 48.9426
#
#
#
# Elastic Compliance Matrix: (Units=1/GPa)
#
#
# Indices 1 2 3 4 5 6 
#
# 1 0.018212 -0.006667 -0.002231 0.004379 0.007957 0.001819
# 2 -0.006667 0.013864 -0.001878 -0.001627 -0.002328 -0.001132
# 3 -0.002231 -0.001878 0.013491 -0.000803 -0.020156 0.001493
# 4 0.004379 -0.001627 -0.000803 0.032891 0.015627 -0.007992
# 5 0.007957 -0.002328 -0.020156 0.015627 0.084231 -0.006689
# 6 0.001819 -0.001132 0.001493 -0.007992 -0.006689 0.023102
#
#
# Mechanical properties :
#
#
# Convention : Reuss Voigt Hill
#
# Bulk Modulus (GPa) = 41.64053 50.58733 46.11393
# Shear Modulus (GPa) = 23.21824 36.18157 29.69991
#
# Velocity S-wave (km/s) = 3.02503 3.77624 3.42132
# Velocity P-wave (km/s) = 5.34907 6.24107 5.81221
#
# Compressibility (1/GPa) = 0.02401506
#
# Stress axis : x y z
#
# Youngs Moduli (GPa) = 54.90864 72.13158 74.12185
#
# Poissons Ratio (x) = 0.48088 0.16535
# Poissons Ratio (y) = 0.36606 0.13924
# Poissons Ratio (z) = 0.12249 0.13550
#
# Static dielectric constant tensor:
#      x y z
#    x 2.159390 -0.095210 0.033270 
#    y -0.095210 2.053360 -0.000670 
#    z 0.033270 -0.000670 2.064440 
# 
# From -- ./inp_files/622146.got.cif
#   From: 2010.05.17/outbox.cif.g08.bks.cpg/sg2_312_cif.got.tgz:622146.got - 2010.06.03 11:33:40.
