data_PCOD9006369
_publ_section_title
;
Structure prediction by ZEFSAII (Michael W. Deem and Ramdas Pophale) SiO2 
 PCOD9006369
Probable space group: P -1
;
_chemical_formula_sum "Si O2"
_cell_formula_units_Z 14
_cell_length_a 14.069749
_cell_length_b 8.796262
_cell_length_c 20.812466
_cell_angle_alpha 50.718219
_cell_angle_beta 16.751273
_cell_angle_gamma 56.873998
_cell_volume 553.617347
_symmetry_space_group_name_H-M "P -1"
_symmetry_group_IT_number 2
_symmetry_cell_setting 'triclinic'
loop_
_space_group_symop_operation_xyz
x,y,z
-x,-y,-z
loop_
_atom_site_type_symbol
_atom_site_label
_atom_site_fract_x
_atom_site_fract_y
_atom_site_fract_z
Si Si1 0.956573 0.367752 0.206974
Si Si2 0.917011 0.305109 0.655503
Si Si3 0.479943 0.390070 0.623018
Si Si4 0.693867 0.939372 0.453208
Si Si5 0.591873 0.086616 0.712331
Si Si6 0.282488 0.090129 0.197929
Si Si7 0.758313 0.199220 0.097941
O O1 0.809238 0.388485 0.368256
O O2 0.649266 0.409730 0.349990
O O3 0.980015 0.148333 0.231337
O O4 0.269186 0.566908 0.943481
O O5 0.889122 0.106370 0.681758
O O6 0.000000 0.500000 0.500000
O O7 0.149385 0.254439 0.579031
O O8 0.539684 0.265502 0.943589
O O9 0.484019 0.292561 0.715267
O O10 0.835609 0.762482 0.169849
O O11 0.413498 0.910872 0.698424
O O12 0.500000 0.000000 0.500000
O O13 0.515264 0.996619 0.855478
O O14 0.396949 0.916461 0.833915
O O15 0.987427 0.142919 0.418093
#
# Coordination Sequence:
#
# PCOD9006369 Si02
#       7
#     2   2   2   2   2   2   2
#     4   9  21  38  59 102 130 172 205 277 351 399
#     4  11  26  51  69  95 140 194 225 280 343 412
#     4   9  19  35  66  97 133 163 210 282 350 393
#     4  12  26  42  69  99 135 179 232 276 342 405
#     4  11  20  42  71 102 131 182 228 288 343 399
#     4  10  25  45  69  96 138 179 239 283 329 420
#     4  10  21  38  65  97 139 169 217 282 349 397
#
# _framework density 25.288226999999999
#
# number of rings (size 3 to 8) (size 9 to 14) (size 15 to 20)
#    0.857    0.857    2.857    0.429    2.000    5.143 
#    2.571    1.429    0.000    0.000    0.000    0.000 
#    0.000    0.000    0.000    0.000    0.000    0.000 
#
# Total GULP energy -78011.449656 kJ/mol
# GULP energy per Si atom -5572.246404 kJ/mol
# Density = 2.523067 g / cm^3
# Si number density = 25.288227 Si / 1000 Ang^3
#
#
#
# Elastic Constant Matrix: (Units=GPa)
#
#
# Indices 1 2 3 4 5 6 
#
# 1 135.4171 36.3407 38.2403 -32.5096 26.5497 -35.0278
# 2 36.3407 103.0831 44.0432 -25.2575 8.1183 -25.3043
# 3 38.2403 44.0432 111.0504 -16.2553 27.0920 -13.0138
# 4 -32.5096 -25.2575 -16.2553 46.5416 -12.0208 9.3153
# 5 26.5497 8.1183 27.0920 -12.0208 31.4590 -14.5140
# 6 -35.0278 -25.3043 -13.0138 9.3153 -14.5140 37.3384
#
#
#
# Elastic Compliance Matrix: (Units=1/GPa)
#
#
# Indices 1 2 3 4 5 6 
#
# 1 0.011748 0.000096 -0.001692 0.005346 -0.002695 0.008114
# 2 0.000096 0.015776 -0.006177 0.006593 0.008418 0.010256
# 3 -0.001692 -0.006177 0.014160 -0.001708 -0.012204 -0.005156
# 4 0.005346 0.006593 -0.001708 0.029485 0.008812 0.004957
# 5 -0.002695 0.008418 -0.012204 0.008812 0.053926 0.017687
# 6 0.008114 0.010256 -0.005156 0.004957 0.017687 0.045186
#
#
# Mechanical properties :
#
#
# Convention : Reuss Voigt Hill
#
# Bulk Modulus (GPa) = 38.25899 65.19988 51.72943
# Shear Modulus (GPa) = 25.70153 38.46289 32.08221
#
# Velocity S-wave (km/s) = 3.19147 3.90421 3.56569
# Velocity P-wave (km/s) = 5.36122 6.79429 6.11985
#
# Compressibility (1/GPa) = 0.02613765
#
# Stress axis : x y z
#
# Youngs Moduli (GPa) = 85.12385 63.38680 70.61967
#
# Poissons Ratio (x) = -0.00606 0.11950
# Poissons Ratio (y) = -0.00814 0.43619
# Poissons Ratio (z) = 0.14405 0.39152
#
# Static dielectric constant tensor:
#      x y z
#    x 2.054770 -0.132810 -0.036080 
#    y -0.132810 2.122120 -0.031300 
#    z -0.036080 -0.031300 2.030440 
# 
# From -- ./inp_files/597097.got.cif
#   From: 2010.05.17/outbox.cif.g08.bks.cpg/sg2_299_cif.got.tgz:597097.got - 2010.06.03 11:33:40.
