data_PCOD9006421
_publ_section_title
;
Structure prediction by ZEFSAII (Michael W. Deem and Ramdas Pophale) SiO2 
 PCOD9006421
Probable space group: P -1
;
_chemical_formula_sum "Si O2"
_cell_formula_units_Z 16
_cell_length_a 11.262100
_cell_length_b 14.832251
_cell_length_c 11.921489
_cell_angle_alpha 30.057431
_cell_angle_beta 132.443694
_cell_angle_gamma 125.274086
_cell_volume 735.922213
_symmetry_space_group_name_H-M "P -1"
_symmetry_group_IT_number 2
_symmetry_cell_setting 'triclinic'
loop_
_space_group_symop_operation_xyz
x,y,z
-x,-y,-z
loop_
_atom_site_type_symbol
_atom_site_label
_atom_site_fract_x
_atom_site_fract_y
_atom_site_fract_z
Si Si1 0.122103 0.630507 0.372147
Si Si2 0.355036 0.555539 0.931643
Si Si3 0.724532 0.803894 0.601848
Si Si4 0.098744 0.802207 0.386366
Si Si5 0.665715 0.886249 0.224048
Si Si6 0.503255 0.086439 0.284639
Si Si7 0.996368 0.100256 0.166457
Si Si8 0.271955 0.291821 0.767925
O O1 0.149767 0.799567 0.290808
O O2 0.273856 0.500462 0.582306
O O3 0.000000 0.500000 0.500000
O O4 0.042015 0.712426 0.122304
O O5 0.206918 0.639340 0.677961
O O6 0.405451 0.725503 0.854316
O O7 0.500000 0.500000 0.000000
O O8 0.307043 0.385340 0.155785
O O9 0.703381 0.793410 0.466857
O O10 0.897042 0.870896 0.685876
O O11 0.591730 0.945338 0.412451
O O12 0.913271 0.751666 0.324910
O O13 0.103347 0.975804 0.282595
O O14 0.646709 0.752074 0.251358
O O15 0.823457 0.009549 0.172645
O O16 0.500000 0.000000 0.000000
O O17 0.500000 0.000000 0.500000
O O18 0.336139 0.156797 0.049795
#
# Coordination Sequence:
#
# PCOD9006421 Si02
#       8
#     2   2   2   2   2   2   2   2
#     4  10  21  38  66 102 140 174 225 290 353 418
#     4  12  25  43  70 110 143 179 234 291 358 427
#     4  12  25  47  70  99 145 188 235 293 346 420
#     4  10  22  40  69 101 141 180 227 282 359 429
#     4  11  25  48  70  97 137 192 247 286 347 421
#     4  12  25  42  72 105 145 183 228 292 367 416
#     4  11  24  44  71 101 137 190 239 289 354 420
#     4  10  23  45  66 101 139 182 235 288 345 423
#
# _framework density 21.741427000000002
#
# number of rings (size 3 to 8) (size 9 to 14) (size 15 to 20)
#    0.000    1.000    3.750    3.000    3.500    4.000 
#    2.250    4.375    0.000    0.000    0.000    0.000 
#    0.000    0.000    0.000    0.000    0.000    0.000 
#
# Total GULP energy -89414.293379 kJ/mol
# GULP energy per Si atom -5588.393336 kJ/mol
# Density = 2.169194 g / cm^3
# Si number density = 21.741427 Si / 1000 Ang^3
#
#
#
# Elastic Constant Matrix: (Units=GPa)
#
#
# Indices 1 2 3 4 5 6 
#
# 1 86.8692 26.6588 46.1635 7.1352 11.2868 -13.6543
# 2 26.6588 67.6320 18.7452 3.1480 4.2542 -9.0043
# 3 46.1635 18.7452 139.2899 22.5282 19.2379 -3.1355
# 4 7.1352 3.1480 22.5282 43.6410 -3.5727 1.3594
# 5 11.2868 4.2542 19.2379 -3.5727 35.3823 1.1833
# 6 -13.6543 -9.0043 -3.1355 1.3594 1.1833 42.4259
#
#
#
# Elastic Compliance Matrix: (Units=1/GPa)
#
#
# Indices 1 2 3 4 5 6 
#
# 1 0.016125 -0.004471 -0.004235 -0.000456 -0.002484 0.004012
# 2 -0.004471 0.017055 -0.000677 -0.000246 -0.000353 0.002149
# 3 -0.004235 -0.000677 0.010063 -0.004808 -0.004508 -0.000483
# 4 -0.000456 -0.000246 -0.004808 0.025984 0.005464 -0.001539
# 5 -0.002484 -0.000353 -0.004508 0.005464 0.032177 -0.002280
# 6 0.004012 0.002149 -0.000483 -0.001539 -0.002280 0.025395
#
#
# Mechanical properties :
#
#
# Convention : Reuss Voigt Hill
#
# Bulk Modulus (GPa) = 40.85248 52.99179 46.92214
# Shear Modulus (GPa) = 32.52582 37.77139 35.14860
#
# Velocity S-wave (km/s) = 3.87205 4.17262 4.02514
# Velocity P-wave (km/s) = 6.23068 6.90224 6.57503
#
# Compressibility (1/GPa) = 0.02447832
#
# Stress axis : x y z
#
# Youngs Moduli (GPa) = 62.01544 58.63247 99.36955
#
# Poissons Ratio (x) = 0.26212 0.42088
# Poissons Ratio (y) = 0.27725 0.06724
# Poissons Ratio (z) = 0.26267 0.03968
#
# Static dielectric constant tensor:
#      x y z
#    x 1.783910 -0.021740 0.007970 
#    y -0.021740 1.918550 -0.002520 
#    z 0.007970 -0.002520 1.750920 
# 
# From -- ./inp_files/223230.got.cif
#   From: 2010.05.17/outbox.cif.g08.bks.cpg/sg2_112_cif.got.tgz:223230.got - 2010.06.03 11:33:40.
