data_PCOD9006687
_publ_section_title
;
Structure prediction by ZEFSAII (Michael W. Deem and Ramdas Pophale) SiO2 
 PCOD9006687
Probable space group: P -1
;
_chemical_formula_sum "Si O2"
_cell_formula_units_Z 16
_cell_length_a 8.754003
_cell_length_b 25.294462
_cell_length_c 8.363870
_cell_angle_alpha 48.722410
_cell_angle_beta 128.111236
_cell_angle_gamma 147.430383
_cell_volume 740.616079
_symmetry_space_group_name_H-M "P -1"
_symmetry_group_IT_number 2
_symmetry_cell_setting 'triclinic'
loop_
_space_group_symop_operation_xyz
x,y,z
-x,-y,-z
loop_
_atom_site_type_symbol
_atom_site_label
_atom_site_fract_x
_atom_site_fract_y
_atom_site_fract_z
Si Si1 0.676894 0.858161 0.188671
Si Si2 0.866227 0.293769 0.645665
Si Si3 0.540971 0.598288 0.141114
Si Si4 0.612839 0.333895 0.840140
Si Si5 0.664127 0.969839 0.682292
Si Si6 0.800996 0.440286 0.306468
Si Si7 0.219764 0.750332 0.686421
Si Si8 0.382776 0.421895 0.231371
O O1 0.439062 0.801791 0.282855
O O2 0.585171 0.766518 0.202404
O O3 0.655647 0.923063 0.936825
O O4 0.994293 0.931786 0.317148
O O5 0.903226 0.387860 0.490536
O O6 0.872905 0.272236 0.510314
O O7 0.124871 0.322613 0.841945
O O8 0.506436 0.627847 0.228837
O O9 0.419314 0.486335 0.272561
O O10 0.369701 0.594599 0.900729
O O11 0.926840 0.435555 0.771236
O O12 0.674775 0.298449 0.099333
O O13 0.485356 0.872550 0.642548
O O14 0.500000 0.000000 0.500000
O O15 0.585192 0.408403 0.369823
O O16 0.946343 0.690448 0.746096
O O17 0.500000 0.500000 0.000000
#
# Coordination Sequence:
#
# PCOD9006687 Si02
#       8
#     2   2   2   2   2   2   2   2
#     4  10  26  47  69 103 131 168 229 288 330 404
#     4  12  27  40  67 108 139 173 226 272 335 406
#     4  11  23  38  62 100 142 180 218 265 323 403
#     4  11  21  44  69  92 147 182 221 274 329 392
#     4  10  25  49  77  93 125 174 230 281 348 396
#     4  11  23  41  64 101 142 186 218 268 332 394
#     4  11  23  43  70  99 134 179 225 279 336 395
#     4  10  21  38  67  99 136 185 225 262 326 401
#
# _framework density 21.603636999999999
#
# number of rings (size 3 to 8) (size 9 to 14) (size 15 to 20)
#    0.000    1.250    3.750    1.875    8.750    4.500 
#    0.000    0.625    0.000    0.000    0.000    0.000 
#    0.000    0.000    0.000    0.000    0.000    0.000 
#
# Total GULP energy -89404.449173 kJ/mol
# GULP energy per Si atom -5587.778073 kJ/mol
# Density = 2.155447 g / cm^3
# Si number density = 21.603637 Si / 1000 Ang^3
#
#
#
# Elastic Constant Matrix: (Units=GPa)
#
#
# Indices 1 2 3 4 5 6 
#
# 1 121.0502 63.2618 28.5825 11.9337 9.2339 8.0253
# 2 63.2618 158.5271 40.9019 15.0758 2.2558 26.3616
# 3 28.5825 40.9019 84.5331 10.8736 13.9653 2.1645
# 4 11.9337 15.0758 10.8736 30.0821 0.2284 1.8121
# 5 9.2339 2.2558 13.9653 0.2284 34.9241 -0.9758
# 6 8.0253 26.3616 2.1645 1.8121 -0.9758 27.3572
#
#
#
# Elastic Compliance Matrix: (Units=1/GPa)
#
#
# Indices 1 2 3 4 5 6 
#
# 1 0.010915 -0.003959 -0.001194 -0.001944 -0.002119 0.000761
# 2 -0.003959 0.010320 -0.003457 -0.001862 0.001542 -0.008332
# 3 -0.001194 -0.003457 0.015176 -0.003389 -0.005437 0.002511
# 4 -0.001944 -0.001862 -0.003389 0.036140 0.001762 0.000301
# 5 -0.002119 0.001542 -0.005437 0.001762 0.031273 0.000565
# 6 0.000761 -0.008332 0.002511 0.000301 0.000565 0.044160
#
#
# Mechanical properties :
#
#
# Convention : Reuss Voigt Hill
#
# Bulk Modulus (GPa) = 52.10820 69.95588 61.03204
# Shear Modulus (GPa) = 29.13720 33.89696 31.51708
#
# Velocity S-wave (km/s) = 3.67647 3.96541 3.82367
# Velocity P-wave (km/s) = 6.49572 7.30875 6.91419
#
# Compressibility (1/GPa) = 0.01919084
#
# Stress axis : x y z
#
# Youngs Moduli (GPa) = 91.61798 96.89474 65.89320
#
# Poissons Ratio (x) = 0.38361 0.07870
# Poissons Ratio (y) = 0.36272 0.22779
# Poissons Ratio (z) = 0.10943 0.33495
#
# Static dielectric constant tensor:
#      x y z
#    x 1.802670 -0.006070 0.010090 
#    y -0.006070 1.782670 0.017950 
#    z 0.010090 0.017950 1.857180 
# 
# From -- ./inp_files/227425.got.cif
#   From: 2010.05.17/outbox.cif.g08.bks.cpg/sg2_114_cif.got.tgz:227425.got - 2010.06.03 11:33:40.
