data_PCOD9006897
_publ_section_title
;
Structure prediction by ZEFSAII (Michael W. Deem and Ramdas Pophale) SiO2 
 PCOD9006897
Probable space group: P -1
;
_chemical_formula_sum "Si O2"
_cell_formula_units_Z 16
_cell_length_a 24.089750
_cell_length_b 13.244733
_cell_length_c 10.216502
_cell_angle_alpha 32.850515
_cell_angle_beta 37.149213
_cell_angle_gamma 18.994074
_cell_volume 575.435550
_symmetry_space_group_name_H-M "P -1"
_symmetry_group_IT_number 2
_symmetry_cell_setting 'triclinic'
loop_
_space_group_symop_operation_xyz
x,y,z
-x,-y,-z
loop_
_atom_site_type_symbol
_atom_site_label
_atom_site_fract_x
_atom_site_fract_y
_atom_site_fract_z
Si Si1 0.543744 0.930942 0.283885
Si Si2 0.123325 0.797836 0.682550
Si Si3 0.191291 0.339960 0.379705
Si Si4 0.551739 0.373093 0.393801
Si Si5 0.271329 0.583102 0.932070
Si Si6 0.189882 0.070277 0.189212
Si Si7 0.397351 0.869832 0.815518
Si Si8 0.998967 0.635641 0.141875
O O1 0.725832 0.542226 0.321468
O O2 0.437675 0.946119 0.539167
O O3 0.458290 0.177488 0.050171
O O4 0.548119 0.090212 0.208524
O O5 0.078202 0.074571 0.406229
O O6 0.206454 0.697046 0.780861
O O7 0.978063 0.887194 0.866414
O O8 0.166270 0.597940 0.184835
O O9 0.088374 0.499567 0.264309
O O10 0.138325 0.287327 0.648390
O O11 0.374340 0.956021 0.404649
O O12 0.500000 0.500000 0.500000
O O13 0.382943 0.685405 0.286916
O O14 0.709918 0.249339 0.217262
O O15 0.127014 0.324528 0.136265
O O16 0.214471 0.108302 0.956376
O O17 0.500000 0.500000 0.000000
#
# Coordination Sequence:
#
# PCOD9006897 Si02
#       8
#     2   2   2   2   2   2   2   2
#     4  11  22  35  56  90 120 152 196 246 299 349
#     4  11  20  33  60  88 118 154 193 242 299 353
#     4  10  23  36  56  83 126 165 190 235 296 356
#     4  12  21  34  55  91 121 150 192 241 292 351
#     4  11  22  34  59  88 123 153 189 238 304 353
#     4  12  21  36  60  87 118 155 196 246 295 346
#     4  11  23  37  55  86 122 156 198 247 294 344
#     4  10  21  39  53  84 124 162 200 232 286 365
#
# _framework density 27.805026999999999
#
# number of rings (size 3 to 8) (size 9 to 14) (size 15 to 20)
#    0.000    1.000    6.250    1.125    1.750    1.000 
#    0.000    3.750    0.000    0.750    0.000    3.500 
#    0.000    0.000    0.000    0.000    0.000    0.000 
#
# Total GULP energy -89493.424928 kJ/mol
# GULP energy per Si atom -5593.339058 kJ/mol
# Density = 2.774174 g / cm^3
# Si number density = 27.805027 Si / 1000 Ang^3
#
#
#
# Elastic Constant Matrix: (Units=GPa)
#
#
# Indices 1 2 3 4 5 6 
#
# 1 81.4927 28.3779 44.4614 -2.0799 -8.1426 21.3902
# 2 28.3779 84.5000 33.6424 -3.4405 -6.8524 18.0285
# 3 44.4614 33.6424 230.1246 17.0887 -27.1540 23.3706
# 4 -2.0799 -3.4405 17.0887 45.6386 6.2865 -2.3737
# 5 -8.1426 -6.8524 -27.1540 6.2865 63.5386 -5.6933
# 6 21.3902 18.0285 23.3706 -2.3737 -5.6933 38.6746
#
#
#
# Elastic Compliance Matrix: (Units=1/GPa)
#
#
# Indices 1 2 3 4 5 6 
#
# 1 0.016179 -0.003253 -0.002077 0.000926 0.000197 -0.006091
# 2 -0.003253 0.014303 -0.001107 0.001107 0.000175 -0.004105
# 3 -0.002077 -0.001107 0.005502 -0.002605 0.002088 -0.001512
# 4 0.000926 0.001107 -0.002605 0.023514 -0.003064 0.001538
# 5 0.000197 0.000175 0.002088 -0.003064 0.017056 0.000870
# 6 -0.006091 -0.004105 -0.001512 0.001538 0.000870 0.032276
#
#
# Mechanical properties :
#
#
# Convention : Reuss Voigt Hill
#
# Bulk Modulus (GPa) = 43.27316 67.67565 55.47441
# Shear Modulus (GPa) = 38.63747 48.87939 43.75843
#
# Velocity S-wave (km/s) = 3.73176 4.19732 3.97137
# Velocity P-wave (km/s) = 5.84507 6.91970 6.40496
#
# Compressibility (1/GPa) = 0.02310901
#
# Stress axis : x y z
#
# Youngs Moduli (GPa) = 61.80730 69.91643 181.75185
#
# Poissons Ratio (x) = 0.22746 0.37754
# Poissons Ratio (y) = 0.20108 0.20120
# Poissons Ratio (z) = 0.12839 0.07740
#
# Static dielectric constant tensor:
#      x y z
#    x 2.271350 -0.163570 -0.112830 
#    y -0.163570 2.140610 0.132570 
#    z -0.112830 0.132570 2.268730 
# 
# From -- ./inp_files/454207.got.cif
#   From: 2010.05.17/outbox.cif.g08.bks.cpg/sg2_228_cif.got.tgz:454207.got - 2010.06.03 11:33:40.
