data_PCOD9006586
_publ_section_title
;
Structure prediction by ZEFSAII (Michael W. Deem and Ramdas Pophale) SiO2 
 PCOD9006586
Probable space group: P -1
;
_chemical_formula_sum "Si O2"
_cell_formula_units_Z 14
_cell_length_a 14.074530
_cell_length_b 8.448732
_cell_length_c 8.320844
_cell_angle_alpha 53.548674
_cell_angle_beta 42.684279
_cell_angle_gamma 64.233117
_cell_volume 539.565337
_symmetry_space_group_name_H-M "P -1"
_symmetry_group_IT_number 2
_symmetry_cell_setting 'triclinic'
loop_
_space_group_symop_operation_xyz
x,y,z
-x,-y,-z
loop_
_atom_site_type_symbol
_atom_site_label
_atom_site_fract_x
_atom_site_fract_y
_atom_site_fract_z
Si Si1 0.305432 0.948649 0.596454
Si Si2 0.927281 0.727392 0.852246
Si Si3 0.827119 0.548044 0.368378
Si Si4 0.087841 0.090365 0.543837
Si Si5 0.501265 0.268709 0.093252
Si Si6 0.211664 0.712724 0.150521
Si Si7 0.434334 0.659264 0.365327
O O1 0.389590 0.845245 0.411698
O O2 0.169437 0.048873 0.628984
O O3 0.402653 0.135679 0.409026
O O4 0.263580 0.771098 0.873938
O O5 0.843049 0.788667 0.761423
O O6 0.014097 0.534121 0.808318
O O7 0.840647 0.735483 0.121132
O O8 0.052284 0.880908 0.635090
O O9 0.802491 0.502515 0.615566
O O10 0.704309 0.432902 0.493371
O O11 0.939795 0.193400 0.699310
O O12 0.500000 0.500000 0.000000
O O13 0.659976 0.193176 0.965012
O O14 0.467588 0.273801 0.944104
O O15 0.500000 0.500000 0.500000
#
# Coordination Sequence:
#
# PCOD9006586 Si02
#       7
#     2   2   2   2   2   2   2
#     4  12  24  44  69 101 140 173 230 289 334 403
#     4   9  18  36  65  90 134 173 217 271 342 397
#     4   9  19  38  60  92 128 176 220 266 332 406
#     4  10  21  38  67 101 133 176 224 281 343 401
#     4  11  26  47  67  95 137 186 228 275 349 409
#     4  10  23  42  64  95 135 182 220 270 347 408
#     4  11  24  41  67 101 131 173 235 282 331 401
#
# _framework density 25.946809999999999
#
# number of rings (size 3 to 8) (size 9 to 14) (size 15 to 20)
#    0.000    1.714    1.429    2.143    4.000    3.429 
#    0.000    1.429    0.000    0.000    0.000    0.000 
#    0.000    0.000    0.000    0.000    0.000    0.000 
#
# Total GULP energy -78085.320773 kJ/mol
# GULP energy per Si atom -5577.522912 kJ/mol
# Density = 2.588775 g / cm^3
# Si number density = 25.946810 Si / 1000 Ang^3
#
#
#
# Elastic Constant Matrix: (Units=GPa)
#
#
# Indices 1 2 3 4 5 6 
#
# 1 95.5902 12.2004 47.2986 -6.1132 12.7267 -31.4862
# 2 12.2004 63.8268 28.4373 -0.6853 2.8191 -6.6173
# 3 47.2986 28.4373 179.8085 -13.4759 53.8231 -15.3756
# 4 -6.1132 -0.6853 -13.4759 33.2847 -6.5601 3.9003
# 5 12.7267 2.8191 53.8231 -6.5601 49.9910 0.4044
# 6 -31.4862 -6.6173 -15.3756 3.9003 0.4044 30.3439
#
#
#
# Elastic Compliance Matrix: (Units=1/GPa)
#
#
# Indices 1 2 3 4 5 6 
#
# 1 0.017591 -0.000378 -0.002586 -0.000166 -0.001831 0.016906
# 2 -0.000378 0.017274 -0.003308 -0.000753 0.002570 0.001761
# 3 -0.002586 -0.003308 0.009883 0.001379 -0.009627 0.001554
# 4 -0.000166 -0.000753 0.001379 0.031539 0.002769 -0.003729
# 5 -0.001831 0.002570 -0.009627 0.002769 0.031110 -0.006988
# 6 0.016906 0.001761 0.001554 -0.003729 -0.006988 0.052242
#
#
# Mechanical properties :
#
#
# Convention : Reuss Voigt Hill
#
# Bulk Modulus (GPa) = 31.05230 57.23311 44.14270
# Shear Modulus (GPa) = 27.33465 39.47653 33.40559
#
# Velocity S-wave (km/s) = 3.24927 3.90480 3.59202
# Velocity P-wave (km/s) = 5.10594 6.51427 5.85262
#
# Compressibility (1/GPa) = 0.03220374
#
# Stress axis : x y z
#
# Youngs Moduli (GPa) = 56.84704 57.88909 101.18540
#
# Poissons Ratio (x) = 0.02191 0.26168
# Poissons Ratio (y) = 0.02151 0.33469
# Poissons Ratio (z) = 0.14701 0.19148
#
# Static dielectric constant tensor:
#      x y z
#    x 2.055650 0.007110 0.034480 
#    y 0.007110 2.144310 -0.059510 
#    z 0.034480 -0.059510 2.190170 
# 
# From -- ./inp_files/302257.got.cif
#   From: 2010.05.17/outbox.cif.g08.bks.cpg/sg2_152_cif.got.tgz:302257.got - 2010.06.03 11:33:40.
