data_PCOD9006591
_publ_section_title
;
Structure prediction by ZEFSAII (Michael W. Deem and Ramdas Pophale) SiO2 
 PCOD9006591
Probable space group: P -1
;
_chemical_formula_sum "Si O2"
_cell_formula_units_Z 14
_cell_length_a 9.679315
_cell_length_b 12.521290
_cell_length_c 10.766168
_cell_angle_alpha 104.011337
_cell_angle_beta 98.931916
_cell_angle_gamma 26.462082
_cell_volume 558.407341
_symmetry_space_group_name_H-M "P -1"
_symmetry_group_IT_number 2
_symmetry_cell_setting 'triclinic'
loop_
_space_group_symop_operation_xyz
x,y,z
-x,-y,-z
loop_
_atom_site_type_symbol
_atom_site_label
_atom_site_fract_x
_atom_site_fract_y
_atom_site_fract_z
Si Si1 0.766322 0.771259 0.575350
Si Si2 0.241425 0.219396 0.135528
Si Si3 0.880408 0.253464 0.358741
Si Si4 0.867299 0.243676 0.617447
Si Si5 0.162948 0.524422 0.198867
Si Si6 0.174925 0.660976 0.989664
Si Si7 0.122235 0.952149 0.813061
O O1 0.634795 0.855654 0.725312
O O2 0.000000 0.500000 0.500000
O O3 0.000223 0.708787 0.606285
O O4 0.500000 0.000000 0.500000
O O5 0.094994 0.443752 0.151895
O O6 0.960800 0.327080 0.127034
O O7 0.500000 0.000000 0.000000
O O8 0.998855 0.116969 0.467178
O O9 0.505559 0.510509 0.376122
O O10 0.974158 0.106687 0.219113
O O11 0.981768 0.288795 0.670336
O O12 0.951674 0.124028 0.720701
O O13 0.157357 0.592309 0.086977
O O14 0.517305 0.282603 0.227110
O O15 0.939801 0.928006 0.045814
O O16 0.500000 0.500000 0.000000
#
# Coordination Sequence:
#
# PCOD9006591 Si02
#       7
#     2   2   2   2   2   2   2
#     4  12  32  53  80 118 167 213 279 345 413 487
#     4  12  27  50  80 115 159 222 269 334 421 500
#     4  10  22  40  68 103 145 203 254 327 393 476
#     4   9  20  38  68 102 146 193 259 315 404 481
#     4  10  22  42  69 103 149 197 258 320 397 485
#     4  11  26  44  73 109 150 198 266 340 397 480
#     4  10  21  38  67 102 142 183 255 317 398 465
#
# _framework density 25.071303
#
# number of rings (size 3 to 8) (size 9 to 14) (size 15 to 20)
#    0.000    1.429    1.429    1.714   10.000    4.000 
#    0.000    0.000    0.000    0.000    0.000    0.000 
#    0.000    0.000    0.000    0.000    0.000    0.000 
#
# Total GULP energy -77956.041322 kJ/mol
# GULP energy per Si atom -5568.288666 kJ/mol
# Density = 2.501424 g / cm^3
# Si number density = 25.071303 Si / 1000 Ang^3
#
#
#
# Elastic Constant Matrix: (Units=GPa)
#
#
# Indices 1 2 3 4 5 6 
#
# 1 209.2925 48.0417 62.8055 13.2304 55.3537 22.3849
# 2 48.0417 67.4466 49.8567 -15.3140 17.7439 -0.9508
# 3 62.8055 49.8567 187.3017 -16.1843 7.8252 14.8498
# 4 13.2304 -15.3140 -16.1843 35.8210 7.2825 9.7050
# 5 55.3537 17.7439 7.8252 7.2825 55.3401 1.0312
# 6 22.3849 -0.9508 14.8498 9.7050 1.0312 42.5894
#
#
#
# Elastic Compliance Matrix: (Units=1/GPa)
#
#
# Indices 1 2 3 4 5 6 
#
# 1 0.008374 -0.003950 -0.001539 -0.003355 -0.006394 -0.003034
# 2 -0.003950 0.024379 -0.004213 0.010435 -0.004678 0.001824
# 3 -0.001539 -0.004213 0.007310 0.002403 0.001585 -0.002420
# 4 -0.003355 0.010435 0.002403 0.037733 -0.005159 -0.007315
# 5 -0.006394 -0.004678 0.001585 -0.005159 0.026360 0.003241
# 6 -0.003034 0.001824 -0.002420 -0.007315 0.003241 0.027548
#
#
# Mechanical properties :
#
#
# Convention : Reuss Voigt Hill
#
# Bulk Modulus (GPa) = 48.40058 87.27207 67.83633
# Shear Modulus (GPa) = 31.64697 46.97254 39.30975
#
# Velocity S-wave (km/s) = 3.55671 4.33316 3.96399
# Velocity P-wave (km/s) = 6.01781 7.74081 6.93304
#
# Compressibility (1/GPa) = 0.02066091
#
# Stress axis : x y z
#
# Youngs Moduli (GPa) = 119.41628 41.01836 136.80587
#
# Poissons Ratio (x) = 0.16200 0.21053
# Poissons Ratio (y) = 0.47164 0.57631
# Poissons Ratio (z) = 0.18377 0.17279
#
# Static dielectric constant tensor:
#      x y z
#    x 1.450650 0.078070 2.385180 
#    y 0.078070 2.111280 -0.176220 
#    z 2.385180 -0.176220 -8.955770 
# 
# From -- ./inp_files/392686.got.cif
#   From: 2010.05.17/outbox.cif.g08.bks.cpg/sg2_197_cif.got.tgz:392686.got - 2010.06.03 11:33:40.
