data_PCOD9006205
_publ_section_title
;
Structure prediction by ZEFSAII (Michael W. Deem and Ramdas Pophale) SiO2 
 PCOD9006205
Probable space group: P -1
;
_chemical_formula_sum "Si O2"
_cell_formula_units_Z 10
_cell_length_a 15.644040
_cell_length_b 12.209333
_cell_length_c 12.214601
_cell_angle_alpha 132.552467
_cell_angle_beta 162.558124
_cell_angle_gamma 40.763456
_cell_volume 443.624135
_symmetry_space_group_name_H-M "P -1"
_symmetry_group_IT_number 2
_symmetry_cell_setting 'triclinic'
loop_
_space_group_symop_operation_xyz
x,y,z
-x,-y,-z
loop_
_atom_site_type_symbol
_atom_site_label
_atom_site_fract_x
_atom_site_fract_y
_atom_site_fract_z
Si Si1 0.944619 0.659301 0.285141
Si Si2 0.828160 0.187937 0.137215
Si Si3 0.680872 0.493474 0.564539
Si Si4 0.947239 0.625031 0.622059
Si Si5 0.320527 0.790706 0.477227
O O1 0.025012 0.754152 0.542589
O O2 0.263760 0.554026 0.527074
O O3 0.879146 0.514248 0.161660
O O4 0.642846 0.785274 0.922037
O O5 0.925011 0.254050 0.190646
O O6 0.438536 0.268860 0.740745
O O7 0.018774 0.981752 0.228442
O O8 0.399734 0.682525 0.388892
O O9 0.726234 0.330756 0.577549
O O10 0.000000 0.500000 0.000000
O O11 0.000000 0.500000 0.500000
#
# Coordination Sequence:
#
# PCOD9006205 Si02
#       5
#     2   2   2   2   2
#     4  10  21  38  65  88 121 166 201 244 311 369
#     4  11  24  39  65  96 125 154 207 257 299 359
#     4   9  21  39  61  84 125 161 205 247 315 354
#     4  10  23  41  60  92 132 162 191 250 317 365
#     4  10  22  39  63  90 121 160 208 258 296 359
#
# _framework density 22.541604
#
# number of rings (size 3 to 8) (size 9 to 14) (size 15 to 20)
#    0.000    2.000    0.000    3.000   14.000    0.800 
#    0.000    2.000    0.000    0.000    0.000    0.000 
#    0.000    0.000    0.000    0.000    0.000    0.000 
#
# Total GULP energy -55818.566271 kJ/mol
# GULP energy per Si atom -5581.856627 kJ/mol
# Density = 2.249030 g / cm^3
# Si number density = 22.541604 Si / 1000 Ang^3
#
#
#
# Elastic Constant Matrix: (Units=GPa)
#
#
# Indices 1 2 3 4 5 6 
#
# 1 139.1630 57.3553 20.7038 -16.1038 24.4473 -1.6569
# 2 57.3553 153.4542 45.2019 -36.6536 16.1230 -2.9251
# 3 20.7038 45.2019 74.4110 -25.1941 20.2747 19.1296
# 4 -16.1038 -36.6536 -25.1941 41.2973 -6.3737 -2.9477
# 5 24.4473 16.1230 20.2747 -6.3737 38.9191 1.6973
# 6 -1.6569 -2.9251 19.1296 -2.9477 1.6973 16.5815
#
#
#
# Elastic Compliance Matrix: (Units=1/GPa)
#
#
# Indices 1 2 3 4 5 6 
#
# 1 0.009244 -0.003013 0.000780 0.000663 -0.004860 0.000108
# 2 -0.003013 0.011105 -0.007365 0.005199 0.001505 0.010925
# 3 0.000780 -0.007365 0.033888 0.009949 -0.011835 -0.037337
# 4 0.000663 0.005199 0.009949 0.034566 -0.001912 -0.004154
# 5 -0.004860 0.001505 -0.011835 -0.001912 0.033555 0.009658
# 6 0.000108 0.010925 -0.037337 -0.004154 0.009658 0.103594
#
#
# Mechanical properties :
#
#
# Convention : Reuss Voigt Hill
#
# Bulk Modulus (GPa) = 28.54054 68.17226 48.35640
# Shear Modulus (GPa) = 19.46823 35.61071 27.53947
#
# Velocity S-wave (km/s) = 2.94199 3.97895 3.49910
# Velocity P-wave (km/s) = 4.92232 7.17063 6.15009
#
# Compressibility (1/GPa) = 0.03503788
#
# Stress axis : x y z
#
# Youngs Moduli (GPa) = 108.18213 90.05274 29.50912
#
# Poissons Ratio (x) = 0.27137 -0.02301
# Poissons Ratio (y) = 0.32601 0.21735
# Poissons Ratio (z) = -0.08436 0.66327
#
# Static dielectric constant tensor:
#      x y z
#    x 1.855960 0.002430 0.050960 
#    y 0.002430 1.795960 0.025460 
#    z 0.050960 0.025460 2.008740 
# 
# From -- ./inp_files/15671.got.cif
#   From: 2010.05.17/outbox.cif.g08.bks.cpg/sg2_8_cif.got.tgz:15671.got - 2010.06.03 11:33:40.
