data_PCOD9006128
_publ_section_title
;
Structure prediction by ZEFSAII (Michael W. Deem and Ramdas Pophale) SiO2 
 PCOD9006128
Probable space group: P -1
;
_chemical_formula_sum "Si O2"
_cell_formula_units_Z 16
_cell_length_a 5.461374
_cell_length_b 18.382741
_cell_length_c 15.803796
_cell_angle_alpha 150.951570
_cell_angle_beta 86.268443
_cell_angle_gamma 104.878511
_cell_volume 700.290174
_symmetry_space_group_name_H-M "P -1"
_symmetry_group_IT_number 2
_symmetry_cell_setting 'triclinic'
loop_
_space_group_symop_operation_xyz
x,y,z
-x,-y,-z
loop_
_atom_site_type_symbol
_atom_site_label
_atom_site_fract_x
_atom_site_fract_y
_atom_site_fract_z
Si Si1 0.825426 0.102352 0.081719
Si Si2 0.745945 0.974312 0.419353
Si Si3 0.080640 0.674416 0.841945
Si Si4 0.710361 0.228983 0.563383
Si Si5 0.245525 0.418902 0.485569
Si Si6 0.593556 0.359713 0.874836
Si Si7 0.511765 0.390950 0.612327
Si Si8 0.791578 0.442471 0.120362
O O1 0.876758 0.162511 0.043902
O O2 0.977850 0.278869 0.307401
O O3 0.500000 0.000000 0.000000
O O4 0.000000 0.000000 0.000000
O O5 0.626895 0.782485 0.208228
O O6 0.500000 0.000000 0.500000
O O7 0.791291 0.084874 0.447139
O O8 0.000000 0.000000 0.500000
O O9 0.217649 0.577139 0.685900
O O10 0.203396 0.693797 0.953664
O O11 0.777795 0.535408 0.713699
O O12 0.619980 0.284645 0.709276
O O13 0.511967 0.228557 0.492823
O O14 0.963608 0.387477 0.688223
O O15 0.500000 0.500000 0.500000
O O16 0.313867 0.335667 0.481113
O O17 0.500000 0.500000 0.000000
O O18 0.833818 0.414655 0.992857
O O19 0.444271 0.498946 0.795510
#
# Coordination Sequence:
#
# PCOD9006128 Si02
#       8
#     2   2   2   2   2   2   2   2
#     4  12  27  44  71 107 144 174 221 294 355 403
#     4  10  23  40  62  91 127 173 221 279 339 397
#     4  10  23  43  69  94 137 177 233 272 332 418
#     4  10  21  39  65  93 133 170 226 287 334 393
#     4  11  22  43  76  98 128 185 238 267 338 429
#     4  11  20  38  67  93 128 176 228 272 335 397
#     4  10  21  39  69  96 130 173 236 279 325 407
#     4  10  21  38  64  98 127 172 226 281 331 391
#
# _framework density 22.847670999999998
#
# number of rings (size 3 to 8) (size 9 to 14) (size 15 to 20)
#    0.000    1.500    2.500    2.250    5.250    1.000 
#    2.250    0.000    0.000    0.000    0.000    0.000 
#    0.000    0.000    0.000    0.000    0.000    0.000 
#
# Total GULP energy -89087.764947 kJ/mol
# GULP energy per Si atom -5567.985309 kJ/mol
# Density = 2.279567 g / cm^3
# Si number density = 22.847671 Si / 1000 Ang^3
#
#
#
# Elastic Constant Matrix: (Units=GPa)
#
#
# Indices 1 2 3 4 5 6 
#
# 1 92.7258 57.6825 9.5404 5.2877 2.7683 -22.3321
# 2 57.6825 186.2483 26.8664 17.1370 -5.3321 -50.7009
# 3 9.5404 26.8664 33.2323 8.4364 4.8719 -12.8829
# 4 5.2877 17.1370 8.4364 45.3580 -7.0921 -7.1327
# 5 2.7683 -5.3321 4.8719 -7.0921 31.5407 0.9962
# 6 -22.3321 -50.7009 -12.8829 -7.1327 0.9962 57.8961
#
#
#
# Elastic Compliance Matrix: (Units=1/GPa)
#
#
# Indices 1 2 3 4 5 6 
#
# 1 0.013653 -0.003743 0.000245 -0.000210 -0.001981 0.002051
# 2 -0.003743 0.008632 -0.003988 -0.000969 0.002026 0.005074
# 3 0.000245 -0.003988 0.037662 -0.006094 -0.008021 0.004370
# 4 -0.000210 -0.000969 -0.006094 0.024660 0.006321 0.000644
# 5 -0.001981 0.002026 -0.008021 0.006321 0.034901 -0.000597
# 6 0.002051 0.005074 0.004370 0.000644 -0.000597 0.023569
#
#
# Mechanical properties :
#
#
# Convention : Reuss Voigt Hill
#
# Bulk Modulus (GPa) = 22.23421 55.59832 38.91626
# Shear Modulus (GPa) = 28.89523 41.50009 35.19766
#
# Velocity S-wave (km/s) = 3.56011 4.26653 3.92922
# Velocity P-wave (km/s) = 5.16254 6.97554 6.13636
#
# Compressibility (1/GPa) = 0.04497575
#
# Stress axis : x y z
#
# Youngs Moduli (GPa) = 73.24580 115.84890 26.55205
#
# Poissons Ratio (x) = 0.43358 -0.00651
# Poissons Ratio (y) = 0.27413 0.10589
# Poissons Ratio (z) = -0.01797 0.46201
#
# Static dielectric constant tensor:
#      x y z
#    x 1.764070 0.089630 0.078320 
#    y 0.089630 1.901940 0.003640 
#    z 0.078320 0.003640 1.605610 
# 
# From -- ./inp_files/141530.got.cif
#   From: 2010.05.17/outbox.cif.g08.bks.cpg/sg2_71_cif.got.tgz:141530.got - 2010.06.03 11:33:40.
