data_PCOD9006261
_publ_section_title
;
Structure prediction by ZEFSAII (Michael W. Deem and Ramdas Pophale) SiO2 
 PCOD9006261
Probable space group: P -1
;
_chemical_formula_sum "Si O2"
_cell_formula_units_Z 16
_cell_length_a 9.033734
_cell_length_b 9.075157
_cell_length_c 21.125774
_cell_angle_alpha 127.535674
_cell_angle_beta 123.404098
_cell_angle_gamma 33.365436
_cell_volume 751.870389
_symmetry_space_group_name_H-M "P -1"
_symmetry_group_IT_number 2
_symmetry_cell_setting 'triclinic'
loop_
_space_group_symop_operation_xyz
x,y,z
-x,-y,-z
loop_
_atom_site_type_symbol
_atom_site_label
_atom_site_fract_x
_atom_site_fract_y
_atom_site_fract_z
Si Si1 0.948650 0.098527 0.330191
Si Si2 0.413444 0.215626 0.703291
Si Si3 0.834902 0.710672 0.759867
Si Si4 0.961773 0.503334 0.417019
Si Si5 0.371921 0.441803 0.236109
Si Si6 0.562194 0.505814 0.866265
Si Si7 0.986501 0.995913 0.920655
Si Si8 0.800804 0.293030 0.491848
O O1 0.031420 0.230194 0.352504
O O2 0.690186 0.224662 0.265085
O O3 0.843710 0.216022 0.407498
O O4 0.193646 0.760451 0.298821
O O5 0.337387 0.245568 0.619488
O O6 0.511000 0.346798 0.777424
O O7 0.121998 0.425611 0.723788
O O8 0.615698 0.916662 0.707090
O O9 0.726605 0.649893 0.768701
O O10 0.883892 0.870993 0.845866
O O11 0.000000 0.500000 0.500000
O O12 0.120534 0.554235 0.440710
O O13 0.333494 0.447262 0.153398
O O14 0.279405 0.789158 0.903890
O O15 0.777595 0.301002 0.918337
O O16 0.000000 0.000000 0.000000
O O17 0.500000 0.500000 0.500000
O O18 0.000000 0.000000 0.500000
#
# Coordination Sequence:
#
# PCOD9006261 Si02
#       8
#     2   2   2   2   2   2   2   2
#     4  11  25  41  63  88 122 173 201 267 313 373
#     4  10  21  40  62  89 118 167 211 252 319 369
#     4  10  24  38  64  94 128 160 205 265 307 365
#     4  10  24  44  64  88 126 165 215 264 321 379
#     4  12  23  41  62  95 129 155 215 253 315 363
#     4  10  21  38  65  92 124 165 206 251 302 373
#     4  10  21  42  65  95 128 167 207 245 303 375
#     4  11  26  44  60  89 121 160 217 262 324 371
#
# _framework density 21.280263999999999
#
# number of rings (size 3 to 8) (size 9 to 14) (size 15 to 20)
#    0.000    1.500    1.250    2.625    8.750    1.000 
#    0.000    6.875    0.000    0.000    0.000    0.000 
#    0.000    0.000    0.000    0.000    0.000    0.000 
#
# Total GULP energy -89487.127568 kJ/mol
# GULP energy per Si atom -5592.945473 kJ/mol
# Density = 2.123183 g / cm^3
# Si number density = 21.280264 Si / 1000 Ang^3
#
#
#
# Elastic Constant Matrix: (Units=GPa)
#
#
# Indices 1 2 3 4 5 6 
#
# 1 121.8665 64.1478 11.1442 -8.4394 -18.9836 17.9797
# 2 64.1478 136.2702 30.6198 -26.0613 -6.0165 -2.2140
# 3 11.1442 30.6198 88.8291 -27.7316 -25.4603 2.3206
# 4 -8.4394 -26.0613 -27.7316 35.5764 8.7652 -6.5138
# 5 -18.9836 -6.0165 -25.4603 8.7652 24.3215 -5.5094
# 6 17.9797 -2.2140 2.3206 -6.5138 -5.5094 30.9405
#
#
#
# Elastic Compliance Matrix: (Units=1/GPa)
#
#
# Indices 1 2 3 4 5 6 
#
# 1 0.015327 -0.008446 0.003632 -0.004557 0.013427 -0.008352
# 2 -0.008446 0.013438 -0.003610 0.008310 -0.008601 0.006358
# 3 0.003632 -0.003610 0.021036 0.009815 0.020840 0.001830
# 4 -0.004557 0.008310 0.009815 0.043893 -0.004568 0.010934
# 5 0.013427 -0.008601 0.020840 -0.004568 0.073413 0.002129
# 6 -0.008352 0.006358 0.001830 0.010934 0.002129 0.040172
#
#
# Mechanical properties :
#
#
# Convention : Reuss Voigt Hill
#
# Bulk Modulus (GPa) = 30.34412 62.08772 46.21592
# Shear Modulus (GPa) = 21.26651 34.23795 27.75223
#
# Velocity S-wave (km/s) = 3.16469 4.01547 3.61519
# Velocity P-wave (km/s) = 5.25774 7.12307 6.26027
#
# Compressibility (1/GPa) = 0.03295531
#
# Stress axis : x y z
#
# Youngs Moduli (GPa) = 65.24228 74.41548 47.53789
#
# Poissons Ratio (x) = 0.62850 -0.17268
# Poissons Ratio (y) = 0.55103 0.17160
# Poissons Ratio (z) = -0.23699 0.26861
#
# Static dielectric constant tensor:
#      x y z
#    x 1.769390 -0.001030 -0.023080 
#    y -0.001030 1.764960 -0.002990 
#    z -0.023080 -0.002990 1.784880 
# 
# From -- ./inp_files/223351.got.cif
#   From: 2010.05.17/outbox.cif.g08.bks.cpg/sg2_112_cif.got.tgz:223351.got - 2010.06.03 11:33:40.
