data_PCOD9006968
_publ_section_title
;
Structure prediction by ZEFSAII (Michael W. Deem and Ramdas Pophale) SiO2 
 PCOD9006968
Probable space group: P -1
;
_chemical_formula_sum "Si O2"
_cell_formula_units_Z 16
_cell_length_a 8.374886
_cell_length_b 17.144457
_cell_length_c 8.449995
_cell_angle_alpha 112.536649
_cell_angle_beta 52.092511
_cell_angle_gamma 130.412201
_cell_volume 728.643972
_symmetry_space_group_name_H-M "P -1"
_symmetry_group_IT_number 2
_symmetry_cell_setting 'triclinic'
loop_
_space_group_symop_operation_xyz
x,y,z
-x,-y,-z
loop_
_atom_site_type_symbol
_atom_site_label
_atom_site_fract_x
_atom_site_fract_y
_atom_site_fract_z
Si Si1 0.937077 0.425294 0.625903
Si Si2 0.393140 0.306119 0.901293
Si Si3 0.924816 0.276648 0.283419
Si Si4 0.273931 0.118398 0.042997
Si Si5 0.745842 0.048987 0.286264
Si Si6 0.746109 0.282700 0.056763
Si Si7 0.644881 0.445210 0.270562
Si Si8 0.263150 0.353385 0.694471
O O1 0.675213 0.392639 0.821956
O O2 0.895827 0.323434 0.495497
O O3 0.000000 0.500000 0.500000
O O4 0.155728 0.482521 0.660736
O O5 0.342417 0.306387 0.745156
O O6 0.331438 0.199773 0.929990
O O7 0.211410 0.327928 0.115249
O O8 0.805187 0.156447 0.272808
O O9 0.811562 0.293939 0.211064
O O10 0.486279 0.181583 0.090976
O O11 0.999183 0.076433 0.236518
O O12 0.285199 0.027699 0.892569
O O13 0.500000 0.000000 0.500000
O O14 0.733333 0.378100 0.095998
O O15 0.968841 0.290731 0.833749
O O16 0.392104 0.366373 0.458091
O O17 0.638648 0.528128 0.233858
#
# Coordination Sequence:
#
# PCOD9006968 Si02
#       8
#     2   2   2   2   2   2   2   2
#     4  12  21  37  58  87 121 162 202 240 283 346
#     4  10  21  39  58  84 119 160 201 243 290 346
#     4  10  23  39  62  88 118 158 198 241 297 356
#     4  10  23  41  64  90 116 153 197 248 299 355
#     4  10  22  43  67  89 113 149 198 248 303 357
#     4  11  22  40  57  85 123 154 193 244 296 344
#     4  11  23  37  53  85 122 161 202 241 285 340
#     4  10  22  36  55  82 120 160 199 241 286 344
#
# _framework density 21.958597000000001
#
# number of rings (size 3 to 8) (size 9 to 14) (size 15 to 20)
#    0.000    1.500    2.500    1.875    0.000    7.000 
#    0.000    0.625    0.000    0.000    0.000    0.000 
#    0.000    0.000    0.000    0.000    0.000    0.000 
#
# Total GULP energy -89465.229958 kJ/mol
# GULP energy per Si atom -5591.576872 kJ/mol
# Density = 2.190862 g / cm^3
# Si number density = 21.958597 Si / 1000 Ang^3
#
#
#
# Elastic Constant Matrix: (Units=GPa)
#
#
# Indices 1 2 3 4 5 6 
#
# 1 74.7192 37.6455 58.1545 2.8564 -16.2546 14.7110
# 2 37.6455 68.6361 18.6469 4.6611 -6.0741 11.4468
# 3 58.1545 18.6469 83.3484 -23.8729 -20.2624 14.6664
# 4 2.8564 4.6611 -23.8729 34.2842 7.3488 -5.9024
# 5 -16.2546 -6.0741 -20.2624 7.3488 29.5774 -6.9997
# 6 14.7110 11.4468 14.6664 -5.9024 -6.9997 38.8273
#
#
#
# Elastic Compliance Matrix: (Units=1/GPa)
#
#
# Indices 1 2 3 4 5 6 
#
# 1 0.067979 -0.018554 -0.052816 -0.042283 0.006551 -0.005582
# 2 -0.018554 0.022125 0.009667 0.005020 -0.000879 -0.002540
# 3 -0.052816 0.009667 0.059895 0.044388 0.003413 0.001899
# 4 -0.042283 0.005020 0.044388 0.065438 -0.006507 0.006548
# 5 0.006551 -0.000879 0.003413 -0.006507 0.041906 0.003054
# 6 -0.005582 -0.002540 0.001899 0.006548 0.003054 0.029447
#
#
# Mechanical properties :
#
#
# Convention : Reuss Voigt Hill
#
# Bulk Modulus (GPa) = 37.60358 50.62196 44.11277
# Shear Modulus (GPa) = 11.93145 28.02157 19.97651
#
# Velocity S-wave (km/s) = 2.33354 3.57614 3.01945
# Velocity P-wave (km/s) = 4.94191 6.33681 5.68232
#
# Compressibility (1/GPa) = 0.02659321
#
# Stress axis : x y z
#
# Youngs Moduli (GPa) = 14.71047 45.19857 16.69583
#
# Poissons Ratio (x) = 0.83861 0.88180
# Poissons Ratio (y) = 0.27294 -0.16140
# Poissons Ratio (z) = 0.77694 -0.43693
#
# Static dielectric constant tensor:
#      x y z
#    x 1.839690 -0.000220 0.009740 
#    y -0.000220 1.792080 0.002040 
#    z 0.009740 0.002040 1.871440 
# 
# From -- ./inp_files/215326.got.cif
#   From: 2010.05.17/outbox.cif.g08.bks.cpg/sg2_108_cif.got.tgz:215326.got - 2010.06.03 11:33:40.
