data_PCOD9006993
_publ_section_title
;
Structure prediction by ZEFSAII (Michael W. Deem and Ramdas Pophale) SiO2 
 PCOD9006993
Probable space group: P -1
;
_chemical_formula_sum "Si O2"
_cell_formula_units_Z 16
_cell_length_a 5.286728
_cell_length_b 12.276794
_cell_length_c 16.585467
_cell_angle_alpha 121.621057
_cell_angle_beta 75.299674
_cell_angle_gamma 72.199176
_cell_volume 750.372784
_symmetry_space_group_name_H-M "P -1"
_symmetry_group_IT_number 2
_symmetry_cell_setting 'triclinic'
loop_
_space_group_symop_operation_xyz
x,y,z
-x,-y,-z
loop_
_atom_site_type_symbol
_atom_site_label
_atom_site_fract_x
_atom_site_fract_y
_atom_site_fract_z
Si Si1 0.156681 0.638182 0.055706
Si Si2 0.290619 0.400468 0.377153
Si Si3 0.216728 0.796022 0.349662
Si Si4 0.982562 0.052814 0.741802
Si Si5 0.010365 0.589580 0.326906
Si Si6 0.644155 0.202101 0.485599
Si Si7 0.135764 0.486253 0.850681
Si Si8 0.971469 0.227129 0.332626
O O1 0.081938 0.802025 0.149071
O O2 0.939760 0.606940 0.116410
O O3 0.500000 0.500000 0.000000
O O4 0.102299 0.620594 0.959525
O O5 0.263694 0.493968 0.336051
O O6 0.631401 0.328698 0.359247
O O7 0.000000 0.500000 0.500000
O O8 0.211482 0.274241 0.311033
O O9 0.967487 0.747797 0.361983
O O10 0.257709 0.856698 0.454394
O O11 0.515377 0.628375 0.248208
O O12 0.187745 0.885910 0.306707
O O13 0.323601 0.924747 0.629023
O O14 0.895783 0.950290 0.759800
O O15 0.688106 0.648560 0.421838
O O16 0.052881 0.490221 0.206305
O O17 0.882702 0.239862 0.440257
#
# Coordination Sequence:
#
# PCOD9006993 Si02
#       8
#     2   2   2   2   2   2   2   2
#     4  11  20  41  61  87 120 157 210 257 315 380
#     4  12  22  41  63  87 129 170 222 256 294 376
#     4  11  20  38  56  93 127 158 201 248 329 369
#     4  10  21  39  58  89 130 158 202 260 309 396
#     4  11  22  36  62  88 125 162 208 259 300 375
#     4   9  22  35  54  92 122 169 194 245 320 372
#     4  10  22  36  60  92 115 158 208 256 321 360
#     4  10  25  39  58  93 123 177 208 249 321 356
#
# _framework density 21.322735000000002
#
# number of rings (size 3 to 8) (size 9 to 14) (size 15 to 20)
#    0.750    0.750    3.750    1.500    3.500    1.500 
#    2.250    0.000    0.000    1.500    0.000    0.000 
#    0.000    0.000    0.000    0.000    0.000    0.000 
#
# Total GULP energy -89157.081029 kJ/mol
# GULP energy per Si atom -5572.317564 kJ/mol
# Density = 2.127420 g / cm^3
# Si number density = 21.322735 Si / 1000 Ang^3
#
#
#
# Elastic Constant Matrix: (Units=GPa)
#
#
# Indices 1 2 3 4 5 6 
#
# 1 55.3933 13.5123 15.0870 9.3589 8.7233 4.7083
# 2 13.5123 89.0276 16.2932 2.9819 15.7332 -13.4481
# 3 15.0870 16.2932 115.0528 16.3844 34.3972 3.3189
# 4 9.3589 2.9819 16.3844 17.8549 12.7288 15.0548
# 5 8.7233 15.7332 34.3972 12.7288 33.8885 -5.4459
# 6 4.7083 -13.4481 3.3189 15.0548 -5.4459 27.4929
#
#
#
# Elastic Compliance Matrix: (Units=1/GPa)
#
#
# Indices 1 2 3 4 5 6 
#
# 1 0.020734 -0.002132 -0.001563 -0.018905 0.005470 0.007031
# 2 -0.002132 0.014856 -0.001462 -0.028434 0.009887 0.025337
# 3 -0.001563 -0.001462 0.013659 0.018991 -0.022646 -0.016981
# 4 -0.018905 -0.028434 0.018991 0.574307 -0.278405 -0.382594
# 5 0.005470 0.009887 -0.022646 -0.278405 0.182439 0.195223
# 6 0.007031 0.025337 -0.016981 -0.382594 0.195223 0.297786
#
#
# Mechanical properties :
#
#
# Convention : Reuss Voigt Hill
#
# Bulk Modulus (GPa) = 25.68376 38.80653 32.24514
# Shear Modulus (GPa) = 4.43627 30.15269 17.29448
#
# Velocity S-wave (km/s) = 1.44397 3.76454 2.85104
# Velocity P-wave (km/s) = 3.85376 6.09384 5.09835
#
# Compressibility (1/GPa) = 0.03893511
#
# Stress axis : x y z
#
# Youngs Moduli (GPa) = 48.23080 67.31290 73.21032
#
# Poissons Ratio (x) = 0.14353 0.11441
# Poissons Ratio (y) = 0.10284 0.10702
# Poissons Ratio (z) = 0.07537 0.09840
#
# Static dielectric constant tensor:
#      x y z
#    x 1.979080 0.025090 0.007710 
#    y 0.025090 1.829770 0.040850 
#    z 0.007710 0.040850 1.804690 
# 
# From -- ./inp_files/548911.got.cif
#   From: 2010.05.17/outbox.cif.g08.bks.cpg/sg2_275_cif.got.tgz:548911.got - 2010.06.03 11:33:40.
