data_PCOD9007422
_publ_section_title
;
Structure prediction by ZEFSAII (Michael W. Deem and Ramdas Pophale) SiO2 
 PCOD9007422
Probable space group: P -1
;
_chemical_formula_sum "Si O2"
_cell_formula_units_Z 16
_cell_length_a 15.735957
_cell_length_b 11.976317
_cell_length_c 11.554824
_cell_angle_alpha 75.074898
_cell_angle_beta 126.943913
_cell_angle_gamma 147.915468
_cell_volume 744.469968
_symmetry_space_group_name_H-M "P -1"
_symmetry_group_IT_number 2
_symmetry_cell_setting 'triclinic'
loop_
_space_group_symop_operation_xyz
x,y,z
-x,-y,-z
loop_
_atom_site_type_symbol
_atom_site_label
_atom_site_fract_x
_atom_site_fract_y
_atom_site_fract_z
Si Si1 0.497012 0.183375 0.917082
Si Si2 0.480912 0.714929 0.568722
Si Si3 0.279494 0.519896 0.207295
Si Si4 0.613367 0.543014 0.974907
Si Si5 0.239685 0.268147 0.559685
Si Si6 0.177131 0.709524 0.905643
Si Si7 0.167970 0.145449 0.266166
Si Si8 0.202559 0.803806 0.158549
O O1 0.524301 0.254481 0.788796
O O2 0.581462 0.374932 0.009446
O O3 0.687046 0.263612 0.053440
O O4 0.246890 0.889237 0.839157
O O5 0.378630 0.652482 0.377860
O O6 0.274687 0.440196 0.536391
O O7 0.680329 0.809631 0.678931
O O8 0.598203 0.928285 0.684466
O O9 0.221531 0.326938 0.216914
O O10 0.029905 0.340851 0.019582
O O11 0.454963 0.426914 0.767909
O O12 0.500000 0.500000 0.000000
O O13 0.888675 0.845085 0.103965
O O14 0.231219 0.213442 0.436309
O O15 0.000000 0.000000 0.500000
O O16 0.277716 0.829375 0.086973
O O17 0.908530 0.404251 0.794402
#
# Coordination Sequence:
#
# PCOD9007422 Si02
#       8
#     2   2   2   2   2   2   2   2
#     4  10  21  39  62  87 125 160 210 255 311 369
#     4  11  23  38  65  93 126 169 209 254 310 378
#     4  10  21  39  61  92 125 168 201 251 310 380
#     4  12  24  37  64  96 124 163 207 250 312 379
#     4  11  23  39  56  94 136 163 201 254 309 376
#     4   9  21  40  62  88 118 167 206 264 311 351
#     4  11  22  39  60  91 132 167 204 248 314 379
#     4  10  21  40  65  88 118 158 221 257 308 362
#
# _framework density 21.491799
#
# number of rings (size 3 to 8) (size 9 to 14) (size 15 to 20)
#    0.000    1.500    1.250    5.250    3.500    1.500 
#    0.000    6.250    0.000    3.000    0.000    0.000 
#    0.000    0.000    0.000    0.000    0.000    0.000 
#
# Total GULP energy -89436.652891 kJ/mol
# GULP energy per Si atom -5589.790806 kJ/mol
# Density = 2.144288 g / cm^3
# Si number density = 21.491799 Si / 1000 Ang^3
#
#
#
# Elastic Constant Matrix: (Units=GPa)
#
#
# Indices 1 2 3 4 5 6 
#
# 1 105.8751 51.8791 22.4509 7.3617 -14.7370 -10.6305
# 2 51.8791 189.4160 49.1687 12.0466 -14.7896 1.7173
# 3 22.4509 49.1687 100.8294 18.6515 -6.1575 -4.6554
# 4 7.3617 12.0466 18.6515 30.0933 -8.7524 -7.5824
# 5 -14.7370 -14.7896 -6.1575 -8.7524 30.9890 10.4911
# 6 -10.6305 1.7173 -4.6554 -7.5824 10.4911 32.7606
#
#
#
# Elastic Compliance Matrix: (Units=1/GPa)
#
#
# Indices 1 2 3 4 5 6 
#
# 1 0.011713 -0.002747 -0.001039 0.000545 0.003228 0.002890
# 2 -0.002747 0.006946 -0.002675 -0.000430 0.002179 -0.002433
# 3 -0.001039 -0.002675 0.012649 -0.006786 -0.001328 0.000455
# 4 0.000545 -0.000430 -0.006786 0.041449 0.008326 0.006162
# 5 0.003228 0.002179 -0.001328 0.008326 0.040409 -0.010269
# 6 0.002890 -0.002433 0.000455 0.006162 -0.010269 0.036369
#
#
# Mechanical properties :
#
#
# Convention : Reuss Voigt Hill
#
# Bulk Modulus (GPa) = 54.39065 71.45755 62.92410
# Shear Modulus (GPa) = 29.65863 36.94336 33.30100
#
# Velocity S-wave (km/s) = 3.71886 4.15052 3.94061
# Velocity P-wave (km/s) = 6.61834 7.50267 7.07434
#
# Compressibility (1/GPa) = 0.01838551
#
# Stress axis : x y z
#
# Youngs Moduli (GPa) = 85.37442 143.97238 79.05921
#
# Poissons Ratio (x) = 0.39553 0.08212
# Poissons Ratio (y) = 0.23455 0.21149
# Poissons Ratio (z) = 0.08867 0.38514
#
# Static dielectric constant tensor:
#      x y z
#    x 1.830900 0.000780 0.016760 
#    y 0.000780 1.825890 -0.022420 
#    z 0.016760 -0.022420 1.760610 
# 
# From -- ./inp_files/328994.got.cif
#   From: 2010.05.17/outbox.cif.g08.bks.cpg/sg2_165_cif.got.tgz:328994.got - 2010.06.03 11:33:40.
