data_PCOD9007444
_publ_section_title
;
Structure prediction by ZEFSAII (Michael W. Deem and Ramdas Pophale) SiO2 
 PCOD9007444
Probable space group: P -1
;
_chemical_formula_sum "Si O2"
_cell_formula_units_Z 12
_cell_length_a 14.909133
_cell_length_b 11.739522
_cell_length_c 14.321530
_cell_angle_alpha 149.512886
_cell_angle_beta 152.089009
_cell_angle_gamma 25.975379
_cell_volume 485.405598
_symmetry_space_group_name_H-M "P -1"
_symmetry_group_IT_number 2
_symmetry_cell_setting 'triclinic'
loop_
_space_group_symop_operation_xyz
x,y,z
-x,-y,-z
loop_
_atom_site_type_symbol
_atom_site_label
_atom_site_fract_x
_atom_site_fract_y
_atom_site_fract_z
Si Si1 0.025870 0.511619 0.287151
Si Si2 0.468953 0.276413 0.198557
Si Si3 0.789023 0.571203 0.288526
Si Si4 0.889679 0.284185 0.680895
Si Si5 0.279869 0.881893 0.059222
Si Si6 0.689004 0.290939 0.246165
O O1 0.020781 0.633742 0.267646
O O2 0.232503 0.507921 0.526842
O O3 0.817236 0.669594 0.282665
O O4 0.099891 0.205528 0.127031
O O5 0.690536 0.241915 0.431624
O O6 0.247715 0.467634 0.196425
O O7 0.463913 0.407248 0.187016
O O8 0.500000 0.000000 0.000000
O O9 0.539077 0.789642 0.260614
O O10 0.000000 0.500000 0.500000
O O11 0.797084 0.295650 0.088020
O O12 0.099017 0.004880 0.724164
O O13 0.324652 0.776071 0.918875
#
# Coordination Sequence:
#
# PCOD9007444 Si02
#       6
#     2   2   2   2   2   2
#     4  11  23  44  71 101 138 184 224 286 338 408
#     4  10  21  39  61  93 137 184 224 271 324 401
#     4  11  25  51  72  99 137 177 232 297 341 404
#     4  10  24  41  64 101 144 179 224 274 338 407
#     4  11  26  46  73 104 133 180 234 278 355 406
#     4  11  24  42  66 103 142 181 224 278 338 413
#
# _framework density 24.721594
#
# number of rings (size 3 to 8) (size 9 to 14) (size 15 to 20)
#    0.000    1.333    1.667    3.500    0.000   14.000 
#    3.000    0.000    0.000    0.000    0.000    0.000 
#    0.000    0.000    0.000    0.000    0.000    0.000 
#
# Total GULP energy -67173.073437 kJ/mol
# GULP energy per Si atom -5597.756120 kJ/mol
# Density = 2.466533 g / cm^3
# Si number density = 24.721594 Si / 1000 Ang^3
#
#
#
# Elastic Constant Matrix: (Units=GPa)
#
#
# Indices 1 2 3 4 5 6 
#
# 1 178.7206 29.1840 41.0090 0.8693 6.9967 -5.5941
# 2 29.1840 89.4355 28.7237 1.7000 -5.6341 -2.2624
# 3 41.0090 28.7237 111.9418 0.8962 -1.7556 -6.6096
# 4 0.8693 1.7000 0.8962 50.5091 1.1355 -9.1627
# 5 6.9967 -5.6341 -1.7556 1.1355 47.9168 4.5318
# 6 -5.5941 -2.2624 -6.6096 -9.1627 4.5318 32.3872
#
#
#
# Elastic Compliance Matrix: (Units=1/GPa)
#
#
# Indices 1 2 3 4 5 6 
#
# 1 0.006356 -0.001522 -0.001911 0.000153 -0.001258 0.000821
# 2 -0.001522 0.012642 -0.002673 -0.000440 0.001648 -0.000280
# 3 -0.001911 -0.002673 0.010418 0.000233 0.000185 0.001649
# 4 0.000153 -0.000440 0.000233 0.020944 -0.001141 0.006128
# 5 -0.001258 0.001648 0.000185 -0.001141 0.021603 -0.003410
# 6 0.000821 -0.000280 0.001649 0.006128 -0.003410 0.033546
#
#
# Mechanical properties :
#
#
# Convention : Reuss Voigt Hill
#
# Bulk Modulus (GPa) = 58.12726 64.21458 61.17092
# Shear Modulus (GPa) = 40.50045 44.90803 42.70424
#
# Velocity S-wave (km/s) = 4.05194 4.26673 4.16072
# Velocity P-wave (km/s) = 6.74201 7.09258 6.91952
#
# Compressibility (1/GPa) = 0.01720363
#
# Stress axis : x y z
#
# Youngs Moduli (GPa) = 157.31984 79.10422 95.99192
#
# Poissons Ratio (x) = 0.12040 0.18340
# Poissons Ratio (y) = 0.23944 0.25662
# Poissons Ratio (z) = 0.30057 0.21148
#
# Static dielectric constant tensor:
#      x y z
#    x 1.979620 0.005000 0.033210 
#    y 0.005000 1.955190 -0.065290 
#    z 0.033210 -0.065290 2.012330 
# 
# From -- ./inp_files/530818.got.cif
#   From: 2010.05.17/outbox.cif.g08.bks.cpg/sg2_266_cif.got.tgz:530818.got - 2010.06.03 11:33:40.
