data_PCOD9007112
_publ_section_title
;
Structure prediction by ZEFSAII (Michael W. Deem and Ramdas Pophale) SiO2 
 PCOD9007112
Probable space group: P -1
;
_chemical_formula_sum "Si O2"
_cell_formula_units_Z 14
_cell_length_a 18.177451
_cell_length_b 5.162030
_cell_length_c 14.809176
_cell_angle_alpha 84.296812
_cell_angle_beta 153.790422
_cell_angle_gamma 93.239488
_cell_volume 608.991939
_symmetry_space_group_name_H-M "P -1"
_symmetry_group_IT_number 2
_symmetry_cell_setting 'triclinic'
loop_
_space_group_symop_operation_xyz
x,y,z
-x,-y,-z
loop_
_atom_site_type_symbol
_atom_site_label
_atom_site_fract_x
_atom_site_fract_y
_atom_site_fract_z
Si Si1 0.161266 0.504219 0.742529
Si Si2 0.129205 0.084356 0.947174
Si Si3 0.028488 0.409238 0.157357
Si Si4 0.527714 0.728409 0.648621
Si Si5 0.312223 0.024999 0.826567
Si Si6 0.349742 0.254595 0.424694
Si Si7 0.066043 0.198616 0.386855
O O1 0.271867 0.238809 0.853108
O O2 0.000000 0.500000 0.500000
O O3 0.080670 0.595792 0.745760
O O4 0.262136 0.745866 0.813736
O O5 0.039533 0.300261 0.905735
O O6 0.312536 0.173050 0.128107
O O7 0.115138 0.798983 0.989146
O O8 0.024930 0.047815 0.742454
O O9 0.158637 0.363813 0.221901
O O10 0.137186 0.318041 0.370197
O O11 0.463433 0.443723 0.600182
O O12 0.588046 0.734298 0.610284
O O13 0.379231 0.951543 0.493404
O O14 0.194181 0.118547 0.608866
O O15 0.500000 0.000000 0.000000
#
# Coordination Sequence:
#
# PCOD9007112 Si02
#       7
#     2   2   2   2   2   2   2
#     4  10  21  39  66  80 113 156 192 230 288 349
#     4  10  22  37  59  85 116 153 192 240 278 353
#     4  10  22  37  59  84 119 152 190 244 290 333
#     4  10  21  39  60  84 118 154 200 231 286 347
#     4  11  23  40  62  89 113 148 199 239 286 341
#     4  10  21  39  60  85 119 156 188 245 285 336
#     4   9  23  39  60  83 121 149 195 235 293 339
#
# _framework density 22.988810999999998
#
# number of rings (size 3 to 8) (size 9 to 14) (size 15 to 20)
#    0.857    1.143    0.000    3.857    6.000    1.143 
#    2.571    0.000    0.000    0.000    0.000    0.000 
#    0.000    0.000    0.000    0.000    0.000    0.000 
#
# Total GULP energy -78182.829243 kJ/mol
# GULP energy per Si atom -5584.487803 kJ/mol
# Density = 2.293649 g / cm^3
# Si number density = 22.988811 Si / 1000 Ang^3
#
#
#
# Elastic Constant Matrix: (Units=GPa)
#
#
# Indices 1 2 3 4 5 6 
#
# 1 61.4848 38.3584 16.8107 8.7743 10.8512 -19.8673
# 2 38.3584 164.9520 48.0862 17.0928 12.6899 -26.6278
# 3 16.8107 48.0862 83.3524 3.8324 17.9012 -22.6094
# 4 8.7743 17.0928 3.8324 24.2563 -4.6840 11.8642
# 5 10.8512 12.6899 17.9012 -4.6840 35.2583 -2.6839
# 6 -19.8673 -26.6278 -22.6094 11.8642 -2.6839 35.9826
#
#
#
# Elastic Compliance Matrix: (Units=1/GPa)
#
#
# Indices 1 2 3 4 5 6 
#
# 1 0.030808 -0.000116 0.006226 -0.029172 -0.014239 0.029393
# 2 -0.000116 0.009626 -0.001603 -0.011911 -0.003458 0.009722
# 3 0.006226 -0.001603 0.020346 -0.016245 -0.012345 0.019471
# 4 -0.029172 -0.011911 -0.016245 0.100868 0.029877 -0.066158
# 5 -0.014239 -0.003458 -0.012345 0.029877 0.042332 -0.024871
# 6 0.029393 0.009722 0.019471 -0.066158 -0.024871 0.083407
#
#
# Mechanical properties :
#
#
# Convention : Reuss Voigt Hill
#
# Bulk Modulus (GPa) = 14.32789 57.36664 35.84726
# Shear Modulus (GPa) = 16.57616 32.86837 24.72226
#
# Velocity S-wave (km/s) = 2.68816 3.78531 3.28289
# Velocity P-wave (km/s) = 3.98510 6.64177 5.47696
#
# Compressibility (1/GPa) = 0.06979397
#
# Stress axis : x y z
#
# Youngs Moduli (GPa) = 32.45917 103.88367 49.14981
#
# Poissons Ratio (x) = 0.01204 -0.30598
# Poissons Ratio (y) = 0.00376 0.07877
# Poissons Ratio (z) = -0.20208 0.16649
#
# Static dielectric constant tensor:
#      x y z
#    x 1.924100 0.017990 -0.057040 
#    y 0.017990 1.855700 -0.016710 
#    z -0.057040 -0.016710 1.877620 
# 
# From -- ./inp_files/287116.got.cif
#   From: 2010.05.17/outbox.cif.g08.bks.cpg/sg2_144_cif.got.tgz:287116.got - 2010.06.03 11:33:40.
