data_PCOD9007903
_publ_section_title
;
Structure prediction by ZEFSAII (Michael W. Deem and Ramdas Pophale) SiO2 
 PCOD9007903
Probable space group: P -1
;
_chemical_formula_sum "Si O2"
_cell_formula_units_Z 12
_cell_length_a 6.117871
_cell_length_b 13.187508
_cell_length_c 12.108978
_cell_angle_alpha 45.094639
_cell_angle_beta 51.721044
_cell_angle_gamma 73.836434
_cell_volume 520.512416
_symmetry_space_group_name_H-M "P -1"
_symmetry_group_IT_number 2
_symmetry_cell_setting 'triclinic'
loop_
_space_group_symop_operation_xyz
x,y,z
-x,-y,-z
loop_
_atom_site_type_symbol
_atom_site_label
_atom_site_fract_x
_atom_site_fract_y
_atom_site_fract_z
Si Si1 0.016124 0.203114 0.432159
Si Si2 0.442562 0.606077 0.341952
Si Si3 0.487857 0.008371 0.128832
Si Si4 0.043178 0.891673 0.717354
Si Si5 0.181167 0.479183 0.309745
Si Si6 0.933200 0.216783 0.973726
O O1 0.955435 0.199681 0.323739
O O2 0.199315 0.359668 0.303897
O O3 0.700962 0.144212 0.636691
O O4 0.161711 0.069293 0.516284
O O5 0.500000 0.500000 0.500000
O O6 0.433493 0.531463 0.281341
O O7 0.718636 0.747179 0.162402
O O8 0.112646 0.608949 0.462226
O O9 0.290658 0.115704 0.145569
O O10 0.790038 0.089428 0.028877
O O11 0.500000 0.000000 0.000000
O O12 0.168142 0.840090 0.827872
O O13 0.135743 0.629063 0.155135
#
# Coordination Sequence:
#
# PCOD9007903 Si02
#       6
#     2   2   2   2   2   2
#     4   9  22  44  61  88 124 168 199 253 304 367
#     4   9  21  37  62  91 129 158 197 257 309 353
#     4  10  23  40  65  92 124 156 207 257 305 359
#     4   9  22  43  61  87 128 161 205 246 313 358
#     4  10  21  39  63  90 127 157 208 250 307 359
#     4  11  22  39  63  93 123 160 203 261 300 362
#
# _framework density 23.054203999999999
#
# number of rings (size 3 to 8) (size 9 to 14) (size 15 to 20)
#    1.000    1.333    0.000    1.000    9.333    2.000 
#    6.000    3.333    0.000    0.000    0.000    0.000 
#    0.000    0.000    0.000    0.000    0.000    0.000 
#
# Total GULP energy -66927.449605 kJ/mol
# GULP energy per Si atom -5577.287467 kJ/mol
# Density = 2.300173 g / cm^3
# Si number density = 23.054204 Si / 1000 Ang^3
#
#
#
# Elastic Constant Matrix: (Units=GPa)
#
#
# Indices 1 2 3 4 5 6 
#
# 1 107.5349 64.3411 57.0739 -6.5417 10.0501 46.1049
# 2 64.3411 151.0451 43.9505 2.7386 11.1990 53.3393
# 3 57.0739 43.9505 81.9384 6.7591 5.8612 26.5982
# 4 -6.5417 2.7386 6.7591 40.6891 6.4476 2.4138
# 5 10.0501 11.1990 5.8612 6.4476 50.6544 2.3453
# 6 46.1049 53.3393 26.5982 2.4138 2.3453 47.5427
#
#
#
# Elastic Compliance Matrix: (Units=1/GPa)
#
#
# Indices 1 2 3 4 5 6 
#
# 1 0.022905 -0.001201 -0.010774 0.006955 -0.003222 -0.015031
# 2 -0.001201 0.011560 -0.001779 0.000222 -0.001643 -0.010740
# 3 -0.010774 -0.001779 0.020683 -0.005233 0.000753 0.001101
# 4 0.006955 0.000222 -0.005233 0.027508 -0.004081 -0.005261
# 5 -0.003222 -0.001643 0.000753 -0.004081 0.021004 0.003717
# 6 -0.015031 -0.010740 0.001101 -0.005261 0.003717 0.047128
#
#
# Mechanical properties :
#
#
# Convention : Reuss Voigt Hill
#
# Bulk Modulus (GPa) = 36.17775 74.58325 55.38050
# Shear Modulus (GPa) = 26.66518 39.45410 33.05964
#
# Velocity S-wave (km/s) = 3.40462 4.14135 3.79092
# Velocity P-wave (km/s) = 5.58406 7.43567 6.57537
#
# Compressibility (1/GPa) = 0.02764130
#
# Stress axis : x y z
#
# Youngs Moduli (GPa) = 43.65830 86.50416 48.34772
#
# Poissons Ratio (x) = 0.10389 0.52091
# Poissons Ratio (y) = 0.05244 0.08599
# Poissons Ratio (z) = 0.47038 0.15385
#
# Static dielectric constant tensor:
#      x y z
#    x 1.866320 -0.039600 -0.034320 
#    y -0.039600 1.895510 0.005450 
#    z -0.034320 0.005450 1.936710 
# 
# From -- ./inp_files/361099.got.cif
#   From: 2010.05.17/outbox.cif.g08.bks.cpg/sg2_181_cif.got.tgz:361099.got - 2010.06.03 11:33:40.
