data_PCOD9007625
_publ_section_title
;
Structure prediction by ZEFSAII (Michael W. Deem and Ramdas Pophale) SiO2 
 PCOD9007625
Probable space group: P -1
;
_chemical_formula_sum "Si O2"
_cell_formula_units_Z 16
_cell_length_a 11.454540
_cell_length_b 8.348481
_cell_length_c 9.806346
_cell_angle_alpha 69.545657
_cell_angle_beta 98.631031
_cell_angle_gamma 128.971073
_cell_volume 679.972251
_symmetry_space_group_name_H-M "P -1"
_symmetry_group_IT_number 2
_symmetry_cell_setting 'triclinic'
loop_
_space_group_symop_operation_xyz
x,y,z
-x,-y,-z
loop_
_atom_site_type_symbol
_atom_site_label
_atom_site_fract_x
_atom_site_fract_y
_atom_site_fract_z
Si Si1 0.723419 0.058790 0.461806
Si Si2 0.654892 0.932894 0.180962
Si Si3 0.053627 0.251483 0.059110
Si Si4 0.314212 0.563200 0.327322
Si Si5 0.905331 0.930540 0.642721
Si Si6 0.622193 0.330247 0.401803
Si Si7 0.350269 0.392097 0.916905
Si Si8 0.164686 0.689647 0.098914
O O1 0.738276 0.018316 0.317025
O O2 0.832486 0.051596 0.581730
O O3 0.549792 0.868525 0.529720
O O4 0.731372 0.268572 0.413974
O O5 0.480015 0.750168 0.243147
O O6 0.685275 0.804327 0.122844
O O7 0.705169 0.142385 0.038064
O O8 0.007033 0.055772 0.211744
O O9 0.081389 0.446392 0.097566
O O10 0.205397 0.320267 0.997532
O O11 0.939013 0.234805 0.935665
O O12 0.233432 0.330413 0.312000
O O13 0.318529 0.519639 0.499478
O O14 0.230745 0.669090 0.254737
O O15 0.000000 0.000000 0.500000
O O16 0.614394 0.427615 0.235645
O O17 0.500000 0.500000 0.000000
#
# Coordination Sequence:
#
# PCOD9007625 Si02
#       8
#     2   2   2   2   2   2   2   2
#     4  10  21  39  62  90 121 159 209 254 304 367
#     4  11  22  38  66  92 122 163 205 255 309 368
#     4  10  23  40  62  92 129 165 205 251 306 372
#     4  10  22  40  63  93 123 161 212 258 306 365
#     4  11  22  40  64  89 124 168 205 248 310 371
#     4  10  22  39  62  90 122 158 204 262 308 356
#     4  12  24  39  61  92 128 162 201 254 310 365
#     4  10  21  41  63  90 125 164 204 254 309 366
#
# _framework density 23.530370999999999
#
# number of rings (size 3 to 8) (size 9 to 14) (size 15 to 20)
#    0.000    1.500    0.000    5.625    0.000    8.500 
#    0.000    3.750    0.000    0.000    0.000    0.000 
#    0.000    0.000    0.000    0.000    0.000    0.000 
#
# Total GULP energy -89372.775513 kJ/mol
# GULP energy per Si atom -5585.798470 kJ/mol
# Density = 2.347682 g / cm^3
# Si number density = 23.530371 Si / 1000 Ang^3
#
#
#
# Elastic Constant Matrix: (Units=GPa)
#
#
# Indices 1 2 3 4 5 6 
#
# 1 128.8812 1.3276 44.6816 14.6430 19.8545 -7.0330
# 2 1.3276 21.4695 -4.1935 1.0056 6.8808 -3.5808
# 3 44.6816 -4.1935 139.9809 -5.5824 16.1919 -3.4103
# 4 14.6430 1.0056 -5.5824 28.8391 -6.3585 -1.3103
# 5 19.8545 6.8808 16.1919 -6.3585 39.2839 -8.8476
# 6 -7.0330 -3.5808 -3.4103 -1.3103 -8.8476 27.7757
#
#
#
# Elastic Compliance Matrix: (Units=1/GPa)
#
#
# Indices 1 2 3 4 5 6 
#
# 1 0.010402 0.000849 -0.002960 -0.007021 -0.005237 0.000381
# 2 0.000849 0.051027 0.002367 -0.003819 -0.010133 0.003676
# 3 -0.002960 0.002367 0.008495 0.002634 -0.001972 0.000095
# 4 -0.007021 -0.003819 0.002634 0.041371 0.010589 0.003378
# 5 -0.005237 -0.010133 -0.001972 0.010589 0.034332 0.008561
# 6 0.000381 0.003676 0.000095 0.003378 0.008561 0.039471
#
#
# Mechanical properties :
#
#
# Convention : Reuss Voigt Hill
#
# Bulk Modulus (GPa) = 14.19715 41.55145 27.87430
# Shear Modulus (GPa) = 24.03102 35.74747 29.88924
#
# Velocity S-wave (km/s) = 3.19921 3.90193 3.56791
# Velocity P-wave (km/s) = 4.43770 6.16417 5.37077
#
# Compressibility (1/GPa) = 0.07043669
#
# Stress axis : x y z
#
# Youngs Moduli (GPa) = 96.13857 19.59744 117.71642
#
# Poissons Ratio (x) = -0.01664 0.34841
# Poissons Ratio (y) = -0.08165 -0.27862
# Poissons Ratio (z) = 0.28454 -0.04639
#
# Static dielectric constant tensor:
#      x y z
#    x 1.930840 0.035840 0.027700 
#    y 0.035840 1.901820 0.001570 
#    z 0.027700 0.001570 1.903940 
# 
# From -- ./inp_files/242596.got.cif
#   From: 2010.05.17/outbox.cif.g08.bks.cpg/sg2_122_cif.got.tgz:242596.got - 2010.06.03 11:33:40.
