data_PCOD9007376
_publ_section_title
;
Structure prediction by ZEFSAII (Michael W. Deem and Ramdas Pophale) SiO2 
 PCOD9007376
Probable space group: P -1
;
_chemical_formula_sum "Si O2"
_cell_formula_units_Z 12
_cell_length_a 5.068862
_cell_length_b 27.321558
_cell_length_c 22.264254
_cell_angle_alpha 169.077995
_cell_angle_beta 61.603163
_cell_angle_gamma 118.600865
_cell_volume 512.639181
_symmetry_space_group_name_H-M "P -1"
_symmetry_group_IT_number 2
_symmetry_cell_setting 'triclinic'
loop_
_space_group_symop_operation_xyz
x,y,z
-x,-y,-z
loop_
_atom_site_type_symbol
_atom_site_label
_atom_site_fract_x
_atom_site_fract_y
_atom_site_fract_z
Si Si1 0.184121 0.472808 0.265987
Si Si2 0.795524 0.678077 0.107617
Si Si3 0.471783 0.887099 0.282023
Si Si4 0.347406 0.860855 0.027946
Si Si5 0.188725 0.808374 0.548932
Si Si6 0.347149 0.963642 0.909045
O O1 0.135277 0.631339 0.401008
O O2 0.363862 0.673431 0.531940
O O3 0.369809 0.229113 0.932725
O O4 0.867758 0.380378 0.218365
O O5 0.703885 0.842627 0.257240
O O6 0.155807 0.717565 0.123266
O O7 0.628064 0.820490 0.350464
O O8 0.702478 0.384910 0.746302
O O9 0.582254 0.962006 0.175062
O O10 0.515940 0.845122 0.927246
O O11 0.115835 0.082061 0.308506
O O12 0.500000 0.000000 0.000000
O O13 0.000000 0.000000 0.000000
#
# Coordination Sequence:
#
# PCOD9007376 Si02
#       6
#     2   2   2   2   2   2
#     4  10  23  42  64  88 123 156 196 249 297 352
#     4   9  16  32  55  84 121 157 197 238 278 337
#     4   9  18  31  57  86 113 160 198 231 293 341
#     4  11  24  40  64  91 118 158 198 239 302 356
#     4  10  21  39  61  90 125 160 197 240 287 346
#     4  11  24  42  63  88 116 151 196 246 302 361
#
# _framework density 23.408277999999999
#
# number of rings (size 3 to 8) (size 9 to 14) (size 15 to 20)
#    0.000    2.000    0.000    5.000    0.000    9.333 
#    0.000    1.667    0.000    0.000    0.000    0.000 
#    0.000    0.000    0.000    0.000    0.000    0.000 
#
# Total GULP energy -67103.787527 kJ/mol
# GULP energy per Si atom -5591.982294 kJ/mol
# Density = 2.335500 g / cm^3
# Si number density = 23.408278 Si / 1000 Ang^3
#
#
#
# Elastic Constant Matrix: (Units=GPa)
#
#
# Indices 1 2 3 4 5 6 
#
# 1 95.2034 35.3568 10.9671 -20.0835 2.4127 4.4373
# 2 35.3568 145.3923 40.1393 -5.5233 19.7401 9.9605
# 3 10.9671 40.1393 72.4796 -22.3132 19.7438 -2.9542
# 4 -20.0835 -5.5233 -22.3132 36.4431 1.0609 6.3981
# 5 2.4127 19.7401 19.7438 1.0609 37.4434 -2.3092
# 6 4.4373 9.9605 -2.9542 6.3981 -2.3092 30.6754
#
#
#
# Elastic Compliance Matrix: (Units=1/GPa)
#
#
# Indices 1 2 3 4 5 6 
#
# 1 0.013516 -0.003410 0.002816 0.009133 -0.000975 -0.002555
# 2 -0.003410 0.009498 -0.005244 -0.003133 -0.002094 -0.002600
# 3 0.002816 -0.005244 0.024011 0.015853 -0.010557 -0.000493
# 4 0.009133 -0.003133 0.015853 0.043465 -0.009053 -0.008524
# 5 -0.000975 -0.002094 -0.010557 -0.009053 0.033959 0.004249
# 6 -0.002555 -0.002600 -0.000493 -0.008524 0.004249 0.035864
#
#
# Mechanical properties :
#
#
# Convention : Reuss Voigt Hill
#
# Bulk Modulus (GPa) = 28.28871 54.00017 41.14444
# Shear Modulus (GPa) = 27.20744 36.01984 31.61364
#
# Velocity S-wave (km/s) = 3.41295 3.92697 3.67895
# Velocity P-wave (km/s) = 5.25758 6.60911 5.97170
#
# Compressibility (1/GPa) = 0.03534979
#
# Stress axis : x y z
#
# Youngs Moduli (GPa) = 73.98458 105.27979 41.64701
#
# Poissons Ratio (x) = 0.35902 -0.11730
# Poissons Ratio (y) = 0.25230 0.21842
# Poissons Ratio (z) = -0.20837 0.55213
#
# Static dielectric constant tensor:
#      x y z
#    x 1.802510 0.001200 -0.012370 
#    y 0.001200 1.906930 -0.000310 
#    z -0.012370 -0.000310 1.937970 
# 
# From -- ./inp_files/55064.got.cif
#   From: 2010.05.17/outbox.cif.g08.bks.cpg/sg2_28_cif.got.tgz:55064.got - 2010.06.03 11:33:40.
