data_PCOD9007082
_publ_section_title
;
Structure prediction by ZEFSAII (Michael W. Deem and Ramdas Pophale) SiO2 
 PCOD9007082
Probable space group: P -1
;
_chemical_formula_sum "Si O2"
_cell_formula_units_Z 16
_cell_length_a 13.600552
_cell_length_b 9.563124
_cell_length_c 13.957615
_cell_angle_alpha 61.202987
_cell_angle_beta 136.369667
_cell_angle_gamma 150.149022
_cell_volume 564.287925
_symmetry_space_group_name_H-M "P -1"
_symmetry_group_IT_number 2
_symmetry_cell_setting 'triclinic'
loop_
_space_group_symop_operation_xyz
x,y,z
-x,-y,-z
loop_
_atom_site_type_symbol
_atom_site_label
_atom_site_fract_x
_atom_site_fract_y
_atom_site_fract_z
Si Si1 0.474403 0.796063 0.641637
Si Si2 0.758387 0.689090 0.253608
Si Si3 0.283479 0.821318 0.995676
Si Si4 0.885541 0.474952 0.679574
Si Si5 0.298647 0.820696 0.678491
Si Si6 0.356082 0.247217 0.560074
Si Si7 0.769905 0.690107 0.065574
Si Si8 0.179237 0.360230 0.093744
O O1 0.477864 0.632099 0.749687
O O2 0.349084 0.646673 0.497475
O O3 0.260716 0.684683 0.599215
O O4 0.730461 0.159494 0.694193
O O5 0.564077 0.630849 0.082226
O O6 0.854733 0.687771 0.225535
O O7 0.028055 0.976907 0.412225
O O8 0.166915 0.537290 0.040054
O O9 0.447064 0.027143 0.137881
O O10 0.038424 0.679915 0.815230
O O11 0.500000 0.000000 0.000000
O O12 0.104218 0.662241 0.686076
O O13 0.365222 0.064445 0.607870
O O14 0.500000 0.500000 0.500000
O O15 0.529223 0.416483 0.725999
O O16 0.854267 0.689340 0.027140
O O17 0.947241 0.023501 0.084219
#
# Coordination Sequence:
#
# PCOD9007082 Si02
#       8
#     2   2   2   2   2   2   2   2
#     4  11  23  39  64  95 121 161 204 258 310 364
#     4  11  23  41  62  90 128 156 209 259 307 365
#     4   9  20  36  61  88 121 159 198 253 303 369
#     4  10  21  39  59  94 126 152 205 253 305 370
#     4  10  22  41  65  89 124 165 203 249 314 364
#     4  11  22  42  63  91 126 167 202 253 308 377
#     4  10  23  40  63  89 119 165 205 259 300 366
#     4  10  21  41  64  89 119 163 211 244 312 369
#
# _framework density 28.354319
#
# number of rings (size 3 to 8) (size 9 to 14) (size 15 to 20)
#    0.000    1.750    2.500    1.125    3.500    1.000 
#    4.500    3.750    0.000    0.000    0.000    0.000 
#    0.000    0.000    0.000    0.000    0.000    0.000 
#
# Total GULP energy -89413.407007 kJ/mol
# GULP energy per Si atom -5588.337938 kJ/mol
# Density = 2.828978 g / cm^3
# Si number density = 28.354319 Si / 1000 Ang^3
#
#
#
# Elastic Constant Matrix: (Units=GPa)
#
#
# Indices 1 2 3 4 5 6 
#
# 1 56.8807 20.5822 3.3185 -8.1574 -11.5508 -2.7711
# 2 20.5822 142.3011 44.4909 -11.3215 -12.1027 7.9346
# 3 3.3185 44.4909 195.1166 -4.4527 -19.3008 7.1645
# 4 -8.1574 -11.3215 -4.4527 46.4472 8.4608 -3.9834
# 5 -11.5508 -12.1027 -19.3008 8.4608 40.2909 2.2902
# 6 -2.7711 7.9346 7.1645 -3.9834 2.2902 32.2543
#
#
#
# Elastic Compliance Matrix: (Units=1/GPa)
#
#
# Indices 1 2 3 4 5 6 
#
# 1 0.019864 -0.002636 0.000695 0.002252 0.004641 0.002149
# 2 -0.002636 0.008177 -0.001652 0.001075 0.000786 -0.001794
# 3 0.000695 -0.001652 0.005778 -0.000287 0.002590 -0.001037
# 4 0.002252 0.001075 -0.000287 0.023199 -0.004220 0.003158
# 5 0.004641 0.000786 0.002590 -0.004220 0.028679 -0.002927
# 6 0.002149 -0.001794 -0.001037 0.003158 -0.002927 0.032458
#
#
# Mechanical properties :
#
#
# Convention : Reuss Voigt Hill
#
# Bulk Modulus (GPa) = 37.54774 59.00905 48.27839
# Shear Modulus (GPa) = 37.25241 45.52563 41.38902
#
# Velocity S-wave (km/s) = 3.62859 4.01134 3.82476
# Velocity P-wave (km/s) = 5.55218 6.50469 6.04721
#
# Compressibility (1/GPa) = 0.02663276
#
# Stress axis : x y z
#
# Youngs Moduli (GPa) = 50.34212 122.28741 173.08058
#
# Poissons Ratio (x) = 0.32239 -0.12026
# Poissons Ratio (y) = 0.13272 0.28587
# Poissons Ratio (z) = -0.03498 0.20198
#
# Static dielectric constant tensor:
#      x y z
#    x 2.607890 0.188100 0.148240 
#    y 0.188100 2.256610 0.062940 
#    z 0.148240 0.062940 2.199100 
# 
# From -- ./inp_files/541341.got.cif
#   From: 2010.05.17/outbox.cif.g08.bks.cpg/sg2_271_cif.got.tgz:541341.got - 2010.06.03 11:33:40.
