data_PCOD9007484
_publ_section_title
;
Structure prediction by ZEFSAII (Michael W. Deem and Ramdas Pophale) SiO2 
 PCOD9007484
Probable space group: P -1
;
_chemical_formula_sum "Si O2"
_cell_formula_units_Z 16
_cell_length_a 10.002451
_cell_length_b 10.129284
_cell_length_c 13.222526
_cell_angle_alpha 32.314247
_cell_angle_beta 98.452037
_cell_angle_gamma 85.192901
_cell_volume 651.241552
_symmetry_space_group_name_H-M "P -1"
_symmetry_group_IT_number 2
_symmetry_cell_setting 'triclinic'
loop_
_space_group_symop_operation_xyz
x,y,z
-x,-y,-z
loop_
_atom_site_type_symbol
_atom_site_label
_atom_site_fract_x
_atom_site_fract_y
_atom_site_fract_z
Si Si1 0.183239 0.342934 0.487320
Si Si2 0.797650 0.888741 0.574097
Si Si3 0.331467 0.594003 0.499106
Si Si4 0.393049 0.924531 0.143657
Si Si5 0.126548 0.631313 0.813305
Si Si6 0.149918 0.406449 0.740843
Si Si7 0.389876 0.281747 0.207361
Si Si8 0.584619 0.191658 0.088544
O O1 0.202195 0.307211 0.391844
O O2 0.271203 0.489688 0.461174
O O3 0.010887 0.505915 0.378896
O O4 0.252707 0.041834 0.736148
O O5 0.653375 0.928027 0.597082
O O6 0.953255 0.766684 0.730447
O O7 0.811047 0.145582 0.356905
O O8 0.338359 0.866718 0.284794
O O9 0.491978 0.368191 0.686324
O O10 0.225103 0.589995 0.579141
O O11 0.487389 0.102925 0.057969
O O12 0.258734 0.094645 0.947073
O O13 0.137123 0.464174 0.820879
O O14 0.234684 0.455134 0.023434
O O15 0.511184 0.185890 0.194442
O O16 0.422088 0.512639 0.121789
#
# Coordination Sequence:
#
# PCOD9007484 Si02
#       8
#     2   2   2   2   2   2   2   2
#     4  10  22  44  59  93 130 151 211 261 293 372
#     4  10  22  39  63  92 126 165 193 255 315 356
#     4  10  23  43  66  89 121 164 201 258 312 352
#     4  10  22  44  61  92 124 154 214 255 292 378
#     4  10  21  39  61  97 126 149 212 251 295 385
#     4  11  22  40  68  89 121 166 199 252 317 358
#     4  11  21  40  63  87 126 171 200 247 311 362
#     4  10  22  41  59  91 133 156 208 260 290 371
#
# _framework density 24.568455
#
# number of rings (size 3 to 8) (size 9 to 14) (size 15 to 20)
#    0.000    1.750    2.500    1.125    1.750    1.000 
#   15.750    0.000    0.000    0.000    0.000    0.000 
#    0.000    0.000    0.000    0.000    0.000    0.000 
#
# Total GULP energy -89493.512534 kJ/mol
# GULP energy per Si atom -5593.344533 kJ/mol
# Density = 2.451254 g / cm^3
# Si number density = 24.568455 Si / 1000 Ang^3
#
#
#
# Elastic Constant Matrix: (Units=GPa)
#
#
# Indices 1 2 3 4 5 6 
#
# 1 141.4054 1.8014 74.6270 -8.3382 9.4442 -11.2171
# 2 1.8014 39.9424 10.8711 -7.1657 3.0669 10.0931
# 3 74.6270 10.8711 110.1265 -7.7338 10.2400 0.2166
# 4 -8.3382 -7.1657 -7.7338 17.8844 -2.2101 -7.3751
# 5 9.4442 3.0669 10.2400 -2.2101 53.3920 2.7474
# 6 -11.2171 10.0931 0.2166 -7.3751 2.7474 23.4818
#
#
#
# Elastic Compliance Matrix: (Units=1/GPa)
#
#
# Indices 1 2 3 4 5 6 
#
# 1 0.012195 0.000785 -0.007889 0.005535 -0.000841 0.007397
# 2 0.000785 0.029603 -0.002918 0.006718 -0.000479 -0.010156
# 3 -0.007889 -0.002918 0.014858 0.000457 -0.001145 -0.002373
# 4 0.005535 0.006718 0.000457 0.070430 0.000339 0.021833
# 5 -0.000841 -0.000479 -0.001145 0.000339 0.019259 -0.002332
# 6 0.007397 -0.010156 -0.002373 0.021833 -0.002332 0.057637
#
#
# Mechanical properties :
#
#
# Convention : Reuss Voigt Hill
#
# Bulk Modulus (GPa) = 27.31322 51.78594 39.54958
# Shear Modulus (GPa) = 21.16587 32.56329 26.86458
#
# Velocity S-wave (km/s) = 2.93833 3.64457 3.31034
# Velocity P-wave (km/s) = 4.75952 6.23173 5.54470
#
# Compressibility (1/GPa) = 0.03661231
#
# Stress axis : x y z
#
# Youngs Moduli (GPa) = 82.00390 33.78007 67.30527
#
# Poissons Ratio (x) = -0.02653 0.53096
# Poissons Ratio (y) = -0.06441 0.19641
# Poissons Ratio (z) = 0.64691 0.09858
#
# Static dielectric constant tensor:
#      x y z
#    x 1.937460 -0.037120 0.006060 
#    y -0.037120 2.000500 0.001720 
#    z 0.006060 0.001720 1.960910 
# 
# From -- ./inp_files/398172.got.cif
#   From: 2010.05.17/outbox.cif.g08.bks.cpg/sg2_200_cif.got.tgz:398172.got - 2010.06.03 11:33:40.
