data_PCOD9007273
_publ_section_title
;
Structure prediction by ZEFSAII (Michael W. Deem and Ramdas Pophale) SiO2 
 PCOD9007273
Probable space group: P -1
;
_chemical_formula_sum "Si O2"
_cell_formula_units_Z 14
_cell_length_a 12.268326
_cell_length_b 7.469663
_cell_length_c 16.680060
_cell_angle_alpha 96.652860
_cell_angle_beta 23.741401
_cell_angle_gamma 90.330589
_cell_volume 591.739675
_symmetry_space_group_name_H-M "P -1"
_symmetry_group_IT_number 2
_symmetry_cell_setting 'triclinic'
loop_
_space_group_symop_operation_xyz
x,y,z
-x,-y,-z
loop_
_atom_site_type_symbol
_atom_site_label
_atom_site_fract_x
_atom_site_fract_y
_atom_site_fract_z
Si Si1 0.825262 0.655445 0.237388
Si Si2 0.844314 0.058017 0.191890
Si Si3 0.613913 0.570302 0.525577
Si Si4 0.649327 0.191619 0.882223
Si Si5 0.704348 0.004425 0.992878
Si Si6 0.772196 0.494127 0.720906
Si Si7 0.566033 0.409031 0.185627
O O1 0.766062 0.876109 0.272485
O O2 0.864885 0.580762 0.298708
O O3 0.562174 0.580117 0.384430
O O4 0.129895 0.577850 0.988984
O O5 0.052027 0.112632 0.120698
O O6 0.593872 0.229627 0.345116
O O7 0.000000 0.000000 0.000000
O O8 0.652751 0.545768 0.592624
O O9 0.809766 0.063005 0.838968
O O10 0.831696 0.319478 0.729656
O O11 0.371519 0.324789 0.119367
O O12 0.541859 0.082344 0.877323
O O13 0.597823 0.195949 0.124639
O O14 0.522688 0.472420 0.827767
O O15 0.000000 0.500000 0.500000
#
# Coordination Sequence:
#
# PCOD9007273 Si02
#       7
#     2   2   2   2   2   2   2
#     4  10  23  39  58  89 123 162 203 238 298 357
#     4  11  21  37  63  88 125 159 196 248 297 357
#     4  11  22  39  61  89 125 159 202 244 294 363
#     4   9  20  40  61  81 120 152 193 249 286 351
#     4   9  19  38  61  84 112 161 193 234 306 340
#     4  10  22  39  61  90 113 150 200 241 299 353
#     4  10  21  39  61  84 121 155 188 252 298 348
#
# _framework density 23.659053
#
# number of rings (size 3 to 8) (size 9 to 14) (size 15 to 20)
#    0.000    2.000    2.857    0.857    2.000    4.571 
#    2.571    9.286    0.000    0.000    0.000    0.000 
#    0.000    0.000    0.000    0.000    0.000    0.000 
#
# Total GULP energy -78092.942097 kJ/mol
# GULP energy per Si atom -5578.067293 kJ/mol
# Density = 2.360520 g / cm^3
# Si number density = 23.659053 Si / 1000 Ang^3
#
#
#
# Elastic Constant Matrix: (Units=GPa)
#
#
# Indices 1 2 3 4 5 6 
#
# 1 105.2469 17.9057 8.5520 -17.0480 14.9215 11.9518
# 2 17.9057 52.0497 18.4257 -22.6341 9.9330 10.7149
# 3 8.5520 18.4257 110.6002 -18.9629 16.6015 15.3359
# 4 -17.0480 -22.6341 -18.9629 19.4866 -4.4907 -6.4056
# 5 14.9215 9.9330 16.6015 -4.4907 31.4460 -0.8059
# 6 11.9518 10.7149 15.3359 -6.4056 -0.8059 26.2796
#
#
#
# Elastic Compliance Matrix: (Units=1/GPa)
#
#
# Indices 1 2 3 4 5 6 
#
# 1 0.012525 0.003141 0.002596 0.013902 -0.006457 -0.005302
# 2 0.003141 0.042651 0.004186 0.051026 -0.010120 -0.009134
# 3 0.002596 0.004186 0.012878 0.015758 -0.007276 -0.006785
# 4 0.013902 0.051026 0.015758 0.133991 -0.012002 -0.004031
# 5 -0.006457 -0.010120 -0.007276 -0.012002 0.040435 0.009623
# 6 -0.005302 -0.009134 -0.006785 -0.004031 0.009623 0.047460
#
#
# Mechanical properties :
#
#
# Convention : Reuss Voigt Hill
#
# Bulk Modulus (GPa) = 11.37656 39.74038 25.55847
# Shear Modulus (GPa) = 16.70038 30.31000 23.50519
#
# Velocity S-wave (km/s) = 2.65972 3.58315 3.15540
# Velocity P-wave (km/s) = 3.77506 5.82685 4.90934
#
# Compressibility (1/GPa) = 0.08790006
#
# Stress axis : x y z
#
# Youngs Moduli (GPa) = 79.83743 23.44635 77.64991
#
# Poissons Ratio (x) = -0.07364 -0.20158
# Poissons Ratio (y) = -0.25077 -0.32503
# Poissons Ratio (z) = -0.20726 -0.09814
#
# Static dielectric constant tensor:
#      x y z
#    x 1.976140 0.006000 0.001930 
#    y 0.006000 1.911320 0.039540 
#    z 0.001930 0.039540 1.924020 
# 
# From -- ./inp_files/251369.got.cif
#   From: 2010.05.17/outbox.cif.g08.bks.cpg/sg2_126_cif.got.tgz:251369.got - 2010.06.03 11:33:40.
