data_PCOD9007253
_publ_section_title
;
Structure prediction by ZEFSAII (Michael W. Deem and Ramdas Pophale) SiO2 
 PCOD9007253
Probable space group: P -1
;
_chemical_formula_sum "Si O2"
_cell_formula_units_Z 13
_cell_length_a 10.306439
_cell_length_b 11.572531
_cell_length_c 10.227207
_cell_angle_alpha 126.106447
_cell_angle_beta 43.544719
_cell_angle_gamma 143.938915
_cell_volume 494.656493
_symmetry_space_group_name_H-M "P -1"
_symmetry_group_IT_number 2
_symmetry_cell_setting 'triclinic'
loop_
_space_group_symop_operation_xyz
x,y,z
-x,-y,-z
loop_
_atom_site_type_symbol
_atom_site_label
_atom_site_fract_x
_atom_site_fract_y
_atom_site_fract_z
Si Si1 0.289665 0.105653 0.967846
Si Si2 0.723861 0.866050 0.544318
Si Si3 0.500000 0.500000 0.000000
Si Si4 0.161601 0.607238 0.801978
Si Si5 0.850675 0.707375 0.146747
Si Si6 0.213040 0.836389 0.657593
Si Si7 0.156015 0.757360 0.375019
O O1 0.332236 0.294196 0.065007
O O2 0.585753 0.200294 0.813667
O O3 0.177192 0.978022 0.831272
O O4 0.109740 0.939988 0.096647
O O5 0.451172 0.743069 0.736647
O O6 0.691021 0.709852 0.373200
O O7 0.763962 0.036711 0.554897
O O8 0.000000 0.000000 0.500000
O O9 0.311377 0.379968 0.926915
O O10 0.190701 0.720003 0.720588
O O11 0.045939 0.401806 0.690232
O O12 0.960823 0.604939 0.024950
O O13 0.057627 0.690633 0.551859
O O14 0.500000 0.000000 0.500000
#
# Coordination Sequence:
#
# PCOD9007253 Si02
#       7
#     2   2   1   2   2   2   2
#     4  10  21  39  61 100 142 177 213 269 343 412
#     4  12  28  48  70  95 132 187 242 281 328 397
#     4  12  22  36  70 112 138 170 224 266 348 424
#     4  11  23  44  69  98 137 175 225 280 351 397
#     4  11  25  44  67 103 137 177 221 282 339 404
#     4   9  17  35  64  95 132 177 204 261 349 410
#     4  11  21  43  68  98 137 183 221 276 348 402
#
# _framework density 26.280863
#
# number of rings (size 3 to 8) (size 9 to 14) (size 15 to 20)
#    0.000    1.231    6.154    1.846    2.154    6.154 
#    0.000    0.769    0.000    0.000    0.000    0.000 
#    0.000    0.000    0.000    0.000    0.000    0.000 
#
# Total GULP energy -72422.945994 kJ/mol
# GULP energy per Si atom -5570.995846 kJ/mol
# Density = 2.622105 g / cm^3
# Si number density = 26.280863 Si / 1000 Ang^3
#
#
#
# Elastic Constant Matrix: (Units=GPa)
#
#
# Indices 1 2 3 4 5 6 
#
# 1 58.9546 22.5403 16.3755 4.7252 -5.1576 34.9156
# 2 22.5403 117.2031 29.8396 17.1103 -16.2706 21.9235
# 3 16.3755 29.8396 112.8176 -1.7623 -14.7425 12.3408
# 4 4.7252 17.1103 -1.7623 33.6454 4.0473 -3.0104
# 5 -5.1576 -16.2706 -14.7425 4.0473 27.0530 7.3455
# 6 34.9156 21.9235 12.3408 -3.0104 7.3455 53.8973
#
#
#
# Elastic Compliance Matrix: (Units=1/GPa)
#
#
# Indices 1 2 3 4 5 6 
#
# 1 0.033216 0.002001 -0.000794 -0.009781 0.015295 -0.024781
# 2 0.002001 0.012874 -0.001525 -0.008943 0.010847 -0.008161
# 3 -0.000794 -0.001525 0.010236 0.000668 0.004909 -0.001841
# 4 -0.009781 -0.008943 0.000668 0.038948 -0.016577 0.014256
# 5 0.015295 0.010847 0.004909 -0.016577 0.058157 -0.024297
# 6 -0.024781 -0.008161 -0.001841 0.014256 -0.024297 0.042456
#
#
# Mechanical properties :
#
#
# Convention : Reuss Voigt Hill
#
# Bulk Modulus (GPa) = 17.95676 47.38733 32.67204
# Shear Modulus (GPa) = 23.24658 37.60048 30.42353
#
# Velocity S-wave (km/s) = 2.97736 3.78659 3.40609
# Velocity P-wave (km/s) = 4.32053 6.09819 5.28464
#
# Compressibility (1/GPa) = 0.05568934
#
# Stress axis : x y z
#
# Youngs Moduli (GPa) = 30.10586 77.67815 97.69661
#
# Poissons Ratio (x) = -0.15541 0.07756
# Poissons Ratio (y) = -0.06023 0.14898
# Poissons Ratio (z) = 0.02390 0.11845
#
# Static dielectric constant tensor:
#      x y z
#    x 2.241030 0.045990 -0.052160 
#    y 0.045990 1.985220 -0.049410 
#    z -0.052160 -0.049410 2.167280 
# 
# From -- ./inp_files/431924.got.cif
#   From: 2010.05.17/outbox.cif.g08.bks.cpg/sg2_216_cif.got.tgz:431924.got - 2010.06.03 11:33:40.
