data_PCOD9007965
_publ_section_title
;
Structure prediction by ZEFSAII (Michael W. Deem and Ramdas Pophale) SiO2 
 PCOD9007965
Probable space group: P -1
;
_chemical_formula_sum "Si O2"
_cell_formula_units_Z 16
_cell_length_a 24.041401
_cell_length_b 15.425590
_cell_length_c 14.408803
_cell_angle_alpha 153.319559
_cell_angle_beta 19.558474
_cell_angle_gamma 156.661069
_cell_volume 692.336097
_symmetry_space_group_name_H-M "P -1"
_symmetry_group_IT_number 2
_symmetry_cell_setting 'triclinic'
loop_
_space_group_symop_operation_xyz
x,y,z
-x,-y,-z
loop_
_atom_site_type_symbol
_atom_site_label
_atom_site_fract_x
_atom_site_fract_y
_atom_site_fract_z
Si Si1 0.324605 0.989346 0.970426
Si Si2 0.327607 0.938779 0.619093
Si Si3 0.301461 0.489328 0.273818
Si Si4 0.346569 0.506310 0.009145
Si Si5 0.258973 0.944884 0.235156
Si Si6 0.090089 0.038925 0.235935
Si Si7 0.703860 0.240211 0.826553
Si Si8 0.790846 0.967334 0.286176
O O1 0.458342 0.934990 0.642594
O O2 0.463311 0.256127 0.034547
O O3 0.142904 0.957142 0.167319
O O4 0.270526 0.872471 0.042743
O O5 0.318011 0.727189 0.481236
O O6 0.204161 0.886539 0.669739
O O7 0.234008 0.035190 0.928771
O O8 0.150721 0.299345 0.396156
O O9 0.500000 0.500000 0.000000
O O10 0.248267 0.427195 0.189185
O O11 0.356912 0.294051 0.753612
O O12 0.241170 0.563731 0.147597
O O13 0.200413 0.746645 0.212207
O O14 0.126866 0.059413 0.550069
O O15 0.476236 0.137683 0.103055
O O16 0.730223 0.055232 0.553331
O O17 0.000000 0.000000 0.000000
#
# Coordination Sequence:
#
# PCOD9007965 Si02
#       8
#     2   2   2   2   2   2   2   2
#     4  10  21  43  63  89 128 168 205 255 321 374
#     4  11  22  39  62  95 127 161 206 266 314 367
#     4  11  21  37  60  96 132 163 203 256 329 374
#     4  10  21  39  63  92 126 166 200 261 320 371
#     4  10  22  42  66  85 128 175 212 254 315 376
#     4  12  22  37  67  98 125 165 212 262 311 379
#     4  10  22  45  61  86 130 173 209 260 317 368
#     4  12  23  37  65  97 124 161 214 261 310 374
#
# _framework density 23.110161999999999
#
# number of rings (size 3 to 8) (size 9 to 14) (size 15 to 20)
#    0.000    1.250    7.500    1.500    0.000    1.500 
#    0.000    8.125    0.000    2.250    0.000    0.000 
#    0.000    0.000    0.000    0.000    0.000    0.000 
#
# Total GULP energy -89227.635343 kJ/mol
# GULP energy per Si atom -5576.727209 kJ/mol
# Density = 2.305756 g / cm^3
# Si number density = 23.110162 Si / 1000 Ang^3
#
#
#
# Elastic Constant Matrix: (Units=GPa)
#
#
# Indices 1 2 3 4 5 6 
#
# 1 167.5947 20.4189 51.6963 6.9916 -22.8018 -32.5244
# 2 20.4189 33.0729 30.4276 10.5774 0.6130 -7.0764
# 3 51.6963 30.4276 145.8014 -0.0932 -21.0045 0.5374
# 4 6.9916 10.5774 -0.0932 26.8468 1.8503 -9.1695
# 5 -22.8018 0.6130 -21.0045 1.8503 51.7664 5.4795
# 6 -32.5244 -7.0764 0.5374 -9.1695 5.4795 25.6939
#
#
#
# Elastic Compliance Matrix: (Units=1/GPa)
#
#
# Indices 1 2 3 4 5 6 
#
# 1 0.009516 -0.001292 -0.002907 0.002047 0.001671 0.012125
# 2 -0.001292 0.046931 -0.010159 -0.015359 -0.005458 0.007186
# 3 -0.002907 -0.010159 0.010577 0.002249 0.003760 -0.006698
# 4 0.002047 -0.015359 0.002249 0.048283 -0.001407 0.015845
# 5 0.001671 -0.005458 0.003760 -0.001407 0.022192 -0.004702
# 6 0.012125 0.007186 -0.006698 0.015845 -0.004702 0.063044
#
#
# Mechanical properties :
#
#
# Convention : Reuss Voigt Hill
#
# Bulk Modulus (GPa) = 26.10375 61.28383 43.69379
# Shear Modulus (GPa) = 20.65886 37.12315 28.89101
#
# Velocity S-wave (km/s) = 2.99311 4.01229 3.53957
# Velocity P-wave (km/s) = 4.82336 6.93111 5.97098
#
# Compressibility (1/GPa) = 0.03830868
#
# Stress axis : x y z
#
# Youngs Moduli (GPa) = 105.08881 21.30809 94.54242
#
# Poissons Ratio (x) = 0.02752 0.27485
# Poissons Ratio (y) = 0.13574 0.96042
# Poissons Ratio (z) = 0.30551 0.21646
#
# Static dielectric constant tensor:
#      x y z
#    x 1.941350 0.031380 -0.043940 
#    y 0.031380 1.943780 -0.062380 
#    z -0.043940 -0.062380 1.912400 
# 
# From -- ./inp_files/543038.got.cif
#   From: 2010.05.17/outbox.cif.g08.bks.cpg/sg2_272_cif.got.tgz:543038.got - 2010.06.03 11:33:40.
