data_PCOD9007416
_publ_section_title
;
Structure prediction by ZEFSAII (Michael W. Deem and Ramdas Pophale) SiO2 
 PCOD9007416
Probable space group: P -1
;
_chemical_formula_sum "Si O2"
_cell_formula_units_Z 16
_cell_length_a 11.318236
_cell_length_b 5.670840
_cell_length_c 12.822902
_cell_angle_alpha 82.005543
_cell_angle_beta 115.069596
_cell_angle_gamma 125.268110
_cell_volume 602.427476
_symmetry_space_group_name_H-M "P -1"
_symmetry_group_IT_number 2
_symmetry_cell_setting 'triclinic'
loop_
_space_group_symop_operation_xyz
x,y,z
-x,-y,-z
loop_
_atom_site_type_symbol
_atom_site_label
_atom_site_fract_x
_atom_site_fract_y
_atom_site_fract_z
Si Si1 0.627122 0.672525 0.166691
Si Si2 0.201201 0.682248 0.091541
Si Si3 0.874182 0.752195 0.546216
Si Si4 0.038871 0.852432 0.815094
Si Si5 0.711801 0.087548 0.529277
Si Si6 0.359280 0.661817 0.964471
Si Si7 0.473803 0.706877 0.300035
Si Si8 0.198242 0.026684 0.226809
O O1 0.448869 0.540118 0.066133
O O2 0.613249 0.739834 0.276946
O O3 0.666729 0.446763 0.157581
O O4 0.771156 0.958102 0.142216
O O5 0.059123 0.405872 0.120879
O O6 0.215153 0.596057 0.986298
O O7 0.378251 0.805610 0.194735
O O8 0.190078 0.941534 0.108588
O O9 0.970109 0.746448 0.680551
O O10 0.777925 0.414104 0.492395
O O11 0.782826 0.897900 0.538480
O O12 0.000000 0.000000 0.500000
O O13 0.973640 0.047635 0.805118
O O14 0.539661 0.871152 0.424031
O O15 0.749008 0.124279 0.664384
O O16 0.500000 0.000000 0.000000
O O17 0.336308 0.364489 0.278532
#
# Coordination Sequence:
#
# PCOD9007416 Si02
#       8
#     2   2   2   2   2   2   2   2
#     4  10  22  42  64  89 126 156 217 267 327 398
#     4  10  21  40  63  87 130 164 214 268 327 389
#     4  11  23  41  61  94 141 180 220 272 324 387
#     4  10  22  41  61  92 125 174 209 261 329 389
#     4  11  23  39  63  96 133 180 227 270 320 386
#     4  10  22  42  65  93 117 159 207 277 332 390
#     4  10  22  38  63  95 122 178 216 268 324 381
#     4  10  21  39  61  91 134 171 214 267 316 390
#
# _framework density 26.559211999999999
#
# number of rings (size 3 to 8) (size 9 to 14) (size 15 to 20)
#    0.000    1.750    1.250    2.250    1.750    3.000 
#    4.500    1.250    0.000    0.000    0.000    0.000 
#    0.000    0.000    0.000    0.000    0.000    0.000 
#
# Total GULP energy -89272.336077 kJ/mol
# GULP energy per Si atom -5579.521005 kJ/mol
# Density = 2.649876 g / cm^3
# Si number density = 26.559212 Si / 1000 Ang^3
#
#
#
# Elastic Constant Matrix: (Units=GPa)
#
#
# Indices 1 2 3 4 5 6 
#
# 1 159.5086 34.9137 43.8480 4.3875 -8.2343 26.8382
# 2 34.9137 146.6740 34.0223 12.2205 -3.6349 14.1435
# 3 43.8480 34.0223 94.7616 21.4677 -16.3124 1.0833
# 4 4.3875 12.2205 21.4677 40.2090 1.1815 -8.3205
# 5 -8.2343 -3.6349 -16.3124 1.1815 47.5275 -1.9516
# 6 26.8382 14.1435 1.0833 -8.3205 -1.9516 38.8739
#
#
#
# Elastic Compliance Matrix: (Units=1/GPa)
#
#
# Indices 1 2 3 4 5 6 
#
# 1 0.008291 -0.000634 -0.003578 0.000087 -0.000063 -0.005378
# 2 -0.000634 0.007872 -0.002166 -0.001727 -0.000321 -0.002752
# 3 -0.003578 -0.002166 0.015359 -0.006964 0.004724 0.001577
# 4 0.000087 -0.001727 -0.006964 0.030677 -0.002975 0.007179
# 5 -0.000063 -0.000321 0.004724 -0.002975 0.022722 0.000533
# 6 -0.005378 -0.002752 0.001577 0.007179 0.000533 0.031958
#
#
# Mechanical properties :
#
#
# Convention : Reuss Voigt Hill
#
# Bulk Modulus (GPa) = 53.28466 69.61248 61.44857
# Shear Modulus (GPa) = 36.79486 44.53277 40.66382
#
# Velocity S-wave (km/s) = 3.72612 4.09924 3.91712
# Velocity P-wave (km/s) = 6.21435 6.97655 6.60645
#
# Compressibility (1/GPa) = 0.01876713
#
# Stress axis : x y z
#
# Youngs Moduli (GPa) = 120.61633 127.02627 65.10992
#
# Poissons Ratio (x) = 0.08051 0.23295
# Poissons Ratio (y) = 0.07645 0.14101
# Poissons Ratio (z) = 0.43155 0.27510
#
# Static dielectric constant tensor:
#      x y z
#    x 2.165380 -0.080220 -0.011870 
#    y -0.080220 2.116650 -0.048860 
#    z -0.011870 -0.048860 2.135540 
# 
# From -- ./inp_files/110552.got.cif
#   From: 2010.05.17/outbox.cif.g08.bks.cpg/sg2_56_cif.got.tgz:110552.got - 2010.06.03 11:33:40.
