data_PCOD9007387
_publ_section_title
;
Structure prediction by ZEFSAII (Michael W. Deem and Ramdas Pophale) SiO2 
 PCOD9007387
Probable space group: P -1
;
_chemical_formula_sum "Si O2"
_cell_formula_units_Z 14
_cell_length_a 16.519113
_cell_length_b 8.498748
_cell_length_c 4.959717
_cell_angle_alpha 63.854853
_cell_angle_beta 81.234017
_cell_angle_gamma 58.974968
_cell_volume 533.106235
_symmetry_space_group_name_H-M "P -1"
_symmetry_group_IT_number 2
_symmetry_cell_setting 'triclinic'
loop_
_space_group_symop_operation_xyz
x,y,z
-x,-y,-z
loop_
_atom_site_type_symbol
_atom_site_label
_atom_site_fract_x
_atom_site_fract_y
_atom_site_fract_z
Si Si1 0.688795 0.893297 0.588584
Si Si2 0.914003 0.479782 0.336144
Si Si3 0.104138 0.834118 0.153061
Si Si4 0.597440 0.319754 0.476450
Si Si5 0.710682 0.646210 0.246152
Si Si6 0.690907 0.348318 0.886688
Si Si7 0.116254 0.157226 0.228545
O O1 0.703643 0.809622 0.344044
O O2 0.788395 0.876742 0.647797
O O3 0.603956 0.123360 0.484470
O O4 0.665389 0.760443 0.906975
O O5 0.899314 0.374841 0.684429
O O6 0.821308 0.501915 0.216116
O O7 0.018359 0.312538 0.313271
O O8 0.898509 0.703482 0.137438
O O9 0.199374 0.781289 0.989943
O O10 0.118019 0.948718 0.320428
O O11 0.000000 0.000000 0.000000
O O12 0.500000 0.500000 0.500000
O O13 0.661025 0.230071 0.782108
O O14 0.633288 0.403425 0.149209
O O15 0.679702 0.519377 0.548189
#
# Coordination Sequence:
#
# PCOD9007387 Si02
#       7
#     2   2   2   2   2   2   2
#     4  11  23  42  70  96 136 181 235 282 353 416
#     4   9  22  36  57  92 136 176 234 274 325 407
#     4  11  24  37  63 101 139 186 234 277 341 426
#     4  12  26  47  74 104 134 180 238 295 353 421
#     4  10  23  43  67 100 138 183 225 286 348 416
#     4  11  25  47  71 102 143 182 227 295 354 407
#     4  10  21  39  61  90 138 189 230 282 341 399
#
# _framework density 26.261182000000002
#
# number of rings (size 3 to 8) (size 9 to 14) (size 15 to 20)
#    0.000    1.429    1.429    2.571    4.000   10.286 
#    0.000    4.286    0.000    0.000    0.000    0.000 
#    0.000    0.000    0.000    0.000    0.000    0.000 
#
# Total GULP energy -78121.008012 kJ/mol
# GULP energy per Si atom -5580.072001 kJ/mol
# Density = 2.620141 g / cm^3
# Si number density = 26.261182 Si / 1000 Ang^3
#
#
#
# Elastic Constant Matrix: (Units=GPa)
#
#
# Indices 1 2 3 4 5 6 
#
# 1 23.3495 11.6493 23.9988 8.6118 -4.0825 -0.4690
# 2 11.6493 108.9882 44.2902 14.1240 -10.5037 -14.9026
# 3 23.9988 44.2902 157.6042 9.9365 -24.8029 -1.9174
# 4 8.6118 14.1240 9.9365 54.1452 7.2421 -5.5749
# 5 -4.0825 -10.5037 -24.8029 7.2421 31.5421 12.5740
# 6 -0.4690 -14.9026 -1.9174 -5.5749 12.5740 46.9554
#
#
#
# Elastic Compliance Matrix: (Units=1/GPa)
#
#
# Indices 1 2 3 4 5 6 
#
# 1 0.054060 -0.002059 -0.006609 -0.007589 0.003771 -0.002294
# 2 -0.002059 0.011158 -0.002561 -0.001892 0.000669 0.003012
# 3 -0.006609 -0.002561 0.009171 -0.001116 0.006732 -0.002439
# 4 -0.007589 -0.001892 -0.001116 0.022071 -0.009308 0.004391
# 5 0.003771 0.000669 0.006732 -0.009308 0.044866 -0.012595
# 6 -0.002294 0.003012 -0.002439 0.004391 -0.012595 0.026024
#
#
# Mechanical properties :
#
#
# Convention : Reuss Voigt Hill
#
# Bulk Modulus (GPa) = 19.25643 49.97981 34.61812
# Shear Modulus (GPa) = 24.14070 40.52878 32.33474
#
# Velocity S-wave (km/s) = 3.03521 3.93274 3.51276
# Velocity P-wave (km/s) = 4.43079 6.30040 5.44642
#
# Compressibility (1/GPa) = 0.05193071
#
# Stress axis : x y z
#
# Youngs Moduli (GPa) = 18.49792 89.62482 109.03801
#
# Poissons Ratio (x) = 0.18456 0.72064
# Poissons Ratio (y) = 0.03809 0.27921
# Poissons Ratio (z) = 0.12225 0.22950
#
# Static dielectric constant tensor:
#      x y z
#    x 2.174900 0.080030 -0.015920 
#    y 0.080030 2.193670 -0.085300 
#    z -0.015920 -0.085300 2.157080 
# 
# From -- ./inp_files/106221.got.cif
#   From: 2010.05.17/outbox.cif.g08.bks.cpg/sg2_54_cif.got.tgz:106221.got - 2010.06.03 11:33:40.
