data_PCOD9007663
_publ_section_title
;
Structure prediction by ZEFSAII (Michael W. Deem and Ramdas Pophale) SiO2 
 PCOD9007663
Probable space group: P -1
;
_chemical_formula_sum "Si O2"
_cell_formula_units_Z 12
_cell_length_a 9.249598
_cell_length_b 9.052226
_cell_length_c 13.140820
_cell_angle_alpha 93.681573
_cell_angle_beta 122.921385
_cell_angle_gamma 124.713713
_cell_volume 638.203696
_symmetry_space_group_name_H-M "P -1"
_symmetry_group_IT_number 2
_symmetry_cell_setting 'triclinic'
loop_
_space_group_symop_operation_xyz
x,y,z
-x,-y,-z
loop_
_atom_site_type_symbol
_atom_site_label
_atom_site_fract_x
_atom_site_fract_y
_atom_site_fract_z
Si Si1 0.058683 0.702820 0.562358
Si Si2 0.727015 0.758510 0.392349
Si Si3 0.226588 0.889995 0.860557
Si Si4 0.464878 0.328186 0.916621
Si Si5 0.492609 0.099560 0.599574
Si Si6 0.019774 0.518551 0.889115
O O1 0.806178 0.641683 0.446164
O O2 0.000000 0.500000 0.500000
O O3 0.145095 0.777284 0.714719
O O4 0.291346 0.904957 0.592107
O O5 0.595365 0.686477 0.227689
O O6 0.586639 0.774798 0.421698
O O7 0.000000 0.000000 0.500000
O O8 0.042825 0.699566 0.862518
O O9 0.255146 0.084885 0.868991
O O10 0.500000 0.000000 0.000000
O O11 0.500000 0.500000 0.000000
O O12 0.725653 0.406724 0.035362
O O13 0.778866 0.284480 0.748489
O O14 0.500000 0.000000 0.500000
O O15 0.000000 0.500000 0.000000
#
# Coordination Sequence:
#
# PCOD9007663 Si02
#       6
#     2   2   2   2   2   2
#     4  11  23  41  67  93 126 171 221 259 314 397
#     4  10  21  41  63  88 134 165 217 261 314 384
#     4  10  21  39  62  91 124 166 216 253 312 388
#     4  11  23  40  67  94 125 173 217 259 318 392
#     4  11  22  39  65  95 127 170 207 264 330 368
#     4  11  22  42  64  89 132 163 207 270 326 368
#
# _framework density 18.802775
#
# number of rings (size 3 to 8) (size 9 to 14) (size 15 to 20)
#    0.000    1.333    5.000    2.000    9.333    0.000 
#    0.000    5.833    0.000    0.000    0.000    0.000 
#    0.000    0.000    0.000    0.000    0.000    0.000 
#
# Total GULP energy -66830.387427 kJ/mol
# GULP energy per Si atom -5569.198952 kJ/mol
# Density = 1.875998 g / cm^3
# Si number density = 18.802775 Si / 1000 Ang^3
#
#
#
# Elastic Constant Matrix: (Units=GPa)
#
#
# Indices 1 2 3 4 5 6 
#
# 1 112.1604 55.1017 55.4311 -0.5399 -16.3757 -23.3940
# 2 55.1017 129.0793 51.6203 4.8435 -20.1857 -13.3251
# 3 55.4311 51.6203 141.2990 12.6703 -10.5783 -14.3114
# 4 -0.5399 4.8435 12.6703 33.8352 -1.4812 -2.4645
# 5 -16.3757 -20.1857 -10.5783 -1.4812 38.7138 4.9598
# 6 -23.3940 -13.3251 -14.3114 -2.4645 4.9598 41.4220
#
#
#
# Elastic Compliance Matrix: (Units=1/GPa)
#
#
# Indices 1 2 3 4 5 6 
#
# 1 0.014016 -0.003687 -0.003665 0.002618 0.002422 0.005329
# 2 -0.003687 0.010759 -0.002153 -0.000630 0.003414 0.000189
# 3 -0.003665 -0.002153 0.009624 -0.003335 -0.000221 0.000390
# 4 0.002618 -0.000630 -0.003335 0.031108 0.000818 0.001877
# 5 0.002422 0.003414 -0.000221 0.000818 0.028734 -0.001002
# 6 0.005329 0.000189 0.000390 0.001877 -0.001002 0.027579
#
#
# Mechanical properties :
#
#
# Convention : Reuss Voigt Hill
#
# Bulk Modulus (GPa) = 64.98289 78.53832 71.76061
# Shear Modulus (GPa) = 34.25575 37.48656 35.87116
#
# Velocity S-wave (km/s) = 4.27294 4.46990 4.37253
# Velocity P-wave (km/s) = 7.67980 8.27649 7.98372
#
# Compressibility (1/GPa) = 0.01538867
#
# Stress axis : x y z
#
# Youngs Moduli (GPa) = 71.34525 92.94533 103.90974
#
# Poissons Ratio (x) = 0.34267 0.38086
# Poissons Ratio (y) = 0.26304 0.22373
# Poissons Ratio (z) = 0.26150 0.20012
#
# Static dielectric constant tensor:
#      x y z
#    x 1.718970 -0.067020 0.037750 
#    y -0.067020 1.734490 -0.026260 
#    z 0.037750 -0.026260 1.621500 
# 
# From -- ./inp_files/144492.got.cif
#   From: 2010.05.17/outbox.cif.g08.bks.cpg/sg2_73_cif.got.tgz:144492.got - 2010.06.03 11:33:40.
