data_PCOD9007933
_publ_section_title
;
Structure prediction by ZEFSAII (Michael W. Deem and Ramdas Pophale) SiO2 
 PCOD9007933
Probable space group: P -1
;
_chemical_formula_sum "Si O2"
_cell_formula_units_Z 14
_cell_length_a 12.127990
_cell_length_b 9.569723
_cell_length_c 8.857709
_cell_angle_alpha 119.976093
_cell_angle_beta 111.386469
_cell_angle_gamma 111.066713
_cell_volume 614.416548
_symmetry_space_group_name_H-M "P -1"
_symmetry_group_IT_number 2
_symmetry_cell_setting 'triclinic'
loop_
_space_group_symop_operation_xyz
x,y,z
-x,-y,-z
loop_
_atom_site_type_symbol
_atom_site_label
_atom_site_fract_x
_atom_site_fract_y
_atom_site_fract_z
Si Si1 0.950805 0.792039 0.449035
Si Si2 0.036949 0.536472 0.860204
Si Si3 0.514903 0.192546 0.180809
Si Si4 0.646318 0.642796 0.768839
Si Si5 0.421470 0.917431 0.255095
Si Si6 0.857806 0.657422 0.658795
Si Si7 0.398991 0.550574 0.041258
O O1 0.019945 0.684917 0.363762
O O2 0.955083 0.805373 0.640166
O O3 0.768687 0.610037 0.209977
O O4 0.000000 0.000000 0.500000
O O5 0.951967 0.605614 0.768734
O O6 0.229081 0.735517 0.053617
O O7 0.000000 0.500000 0.000000
O O8 0.380598 0.205362 0.087037
O O9 0.693158 0.427238 0.386241
O O10 0.484775 0.122608 0.302443
O O11 0.500000 0.000000 0.000000
O O12 0.500000 0.500000 0.500000
O O13 0.798789 0.738834 0.793102
O O14 0.628983 0.501318 0.821987
O O15 0.500000 0.000000 0.500000
O O16 0.476095 0.790025 0.161601
O O17 0.500000 0.500000 0.000000
#
# Coordination Sequence:
#
# PCOD9007933 Si02
#       7
#     2   2   2   2   2   2   2
#     4  11  26  44  64  94 130 175 221 271 332 390
#     4  11  24  44  67  96 134 174 218 272 332 397
#     4  11  22  39  65  96 126 166 215 265 322 383
#     4  10  21  39  63  91 126 170 213 262 322 381
#     4  11  23  40  64  95 125 164 212 261 322 391
#     4  11  23  45  66  91 133 175 219 275 327 394
#     4  11  22  41  64  93 130 166 214 270 319 384
#
# _framework density 22.785844999999998
#
# number of rings (size 3 to 8) (size 9 to 14) (size 15 to 20)
#    0.000    1.143    0.000    9.000    0.000    5.714 
#    0.000    2.143    0.000    0.000    0.000    0.000 
#    0.000    0.000    0.000    0.000    0.000    0.000 
#
# Total GULP energy -78213.119462 kJ/mol
# GULP energy per Si atom -5586.651390 kJ/mol
# Density = 2.273398 g / cm^3
# Si number density = 22.785845 Si / 1000 Ang^3
#
#
#
# Elastic Constant Matrix: (Units=GPa)
#
#
# Indices 1 2 3 4 5 6 
#
# 1 151.5959 54.3536 35.9921 -8.6572 -26.0627 -23.5675
# 2 54.3536 189.0764 28.8947 -24.2683 -11.9029 0.1292
# 3 35.9921 28.8947 75.9623 -3.0183 -13.9769 -5.3163
# 4 -8.6572 -24.2683 -3.0183 41.9239 -5.7253 -7.0725
# 5 -26.0627 -11.9029 -13.9769 -5.7253 29.1712 -5.3214
# 6 -23.5675 0.1292 -5.3163 -7.0725 -5.3214 44.6749
#
#
#
# Elastic Compliance Matrix: (Units=1/GPa)
#
#
# Indices 1 2 3 4 5 6 
#
# 1 0.010706 -0.001686 -0.001947 0.003670 0.009976 0.007190
# 2 -0.001686 0.006485 -0.001364 0.003386 0.001077 -0.000406
# 3 -0.001947 -0.001364 0.015835 0.001031 0.005807 0.001716
# 4 0.003670 0.003386 0.001031 0.029742 0.012496 0.008246
# 5 0.009976 0.001077 0.005807 0.012496 0.051432 0.014055
# 6 0.007190 -0.000406 0.001716 0.008246 0.014055 0.029362
#
#
# Mechanical properties :
#
#
# Convention : Reuss Voigt Hill
#
# Bulk Modulus (GPa) = 43.41583 72.79061 58.10322
# Shear Modulus (GPa) = 31.01143 42.98028 36.99585
#
# Velocity S-wave (km/s) = 3.69317 4.34783 4.03380
# Velocity P-wave (km/s) = 6.10584 7.56437 6.87390
#
# Compressibility (1/GPa) = 0.02303307
#
# Stress axis : x y z
#
# Youngs Moduli (GPa) = 93.40916 154.21279 63.15123
#
# Poissons Ratio (x) = 0.25999 0.12293
# Poissons Ratio (y) = 0.15748 0.08611
# Poissons Ratio (z) = 0.18183 0.21028
#
# Static dielectric constant tensor:
#      x y z
#    x 1.860280 -0.034110 0.010110 
#    y -0.034110 1.903490 0.019560 
#    z 0.010110 0.019560 1.761000 
# 
# From -- ./inp_files/158078.got.cif
#   From: 2010.05.17/outbox.cif.g08.bks.cpg/sg2_80_cif.got.tgz:158078.got - 2010.06.03 11:33:40.
