data_PCOD9007881
_publ_section_title
;
Structure prediction by ZEFSAII (Michael W. Deem and Ramdas Pophale) SiO2 
 PCOD9007881
Probable space group: P -1
;
_chemical_formula_sum "Si O2"
_cell_formula_units_Z 16
_cell_length_a 5.041427
_cell_length_b 6.832373
_cell_length_c 25.183658
_cell_angle_alpha 69.649715
_cell_angle_beta 107.799735
_cell_angle_gamma 121.312122
_cell_volume 686.340150
_symmetry_space_group_name_H-M "P -1"
_symmetry_group_IT_number 2
_symmetry_cell_setting 'triclinic'
loop_
_space_group_symop_operation_xyz
x,y,z
-x,-y,-z
loop_
_atom_site_type_symbol
_atom_site_label
_atom_site_fract_x
_atom_site_fract_y
_atom_site_fract_z
Si Si1 0.344937 0.224583 0.991465
Si Si2 0.260168 0.803874 0.893909
Si Si3 0.539243 0.031321 0.622121
Si Si4 0.831808 0.730988 0.623157
Si Si5 0.631068 0.833630 0.500339
Si Si6 0.798522 0.777049 0.207690
Si Si7 0.385357 0.735221 0.281992
Si Si8 0.454333 0.477426 0.122970
O O1 0.639398 0.703236 0.075471
O O2 0.573390 0.143338 0.043641
O O3 0.500000 0.500000 0.000000
O O4 0.000000 0.000000 0.000000
O O5 0.460575 0.721915 0.875290
O O6 0.909804 0.594940 0.899202
O O7 0.210898 0.008653 0.844268
O O8 0.534008 0.221659 0.561813
O O9 0.569345 0.116910 0.675790
O O10 0.788777 0.944813 0.627003
O O11 0.188014 0.813186 0.618841
O O12 0.611170 0.664579 0.563395
O O13 0.741395 0.528788 0.679522
O O14 0.500000 0.000000 0.500000
O O15 0.000000 0.000000 0.500000
O O16 0.683454 0.788928 0.258735
O O17 0.556081 0.543717 0.183499
O O18 0.128651 0.772593 0.228684
#
# Coordination Sequence:
#
# PCOD9007881 Si02
#       8
#     2   2   2   2   2   2   2   2
#     4  10  25  45  79 113 148 186 236 295 371 437
#     4  11  26  47  72 103 137 182 227 285 351 419
#     4  10  21  39  63  89 129 164 215 278 338 405
#     4  10  21  39  63  89 129 164 215 278 338 405
#     4   8  16  33  58  89 118 164 206 265 344 407
#     4  12  28  43  68  91 138 174 234 276 330 412
#     4  12  26  41  62  99 120 182 228 274 336 406
#     4  11  26  47  72 103 137 182 227 285 351 419
#
# _framework density 23.312055999999998
#
# number of rings (size 3 to 8) (size 9 to 14) (size 15 to 20)
#    0.000    1.500    0.000    3.375    8.750    7.000 
#    0.000    0.000    0.000   10.500    0.000    0.000 
#    0.000    0.000    0.000    0.000    0.000    0.000 
#
# Total GULP energy -89305.513630 kJ/mol
# GULP energy per Si atom -5581.594602 kJ/mol
# Density = 2.325900 g / cm^3
# Si number density = 23.312056 Si / 1000 Ang^3
#
#
#
# Elastic Constant Matrix: (Units=GPa)
#
#
# Indices 1 2 3 4 5 6 
#
# 1 96.5370 7.6948 -3.3099 9.3815 6.1536 -7.7418
# 2 7.6948 68.5501 25.9504 -5.2734 2.2188 -13.8495
# 3 -3.3099 25.9504 102.8634 -4.2796 4.5879 -4.4430
# 4 9.3815 -5.2734 -4.2796 66.9958 -1.4450 -4.7345
# 5 6.1536 2.2188 4.5879 -1.4450 44.6725 1.0242
# 6 -7.7418 -13.8495 -4.4430 -4.7345 1.0242 35.2351
#
#
#
# Elastic Compliance Matrix: (Units=1/GPa)
#
#
# Indices 1 2 3 4 5 6 
#
# 1 0.010873 -0.001185 0.000740 -0.001471 -0.001605 0.001866
# 2 -0.001185 0.017736 -0.004145 0.001744 -0.000383 0.006434
# 3 0.000740 -0.004145 0.010844 0.000239 -0.001001 -0.000038
# 4 -0.001471 0.001744 0.000239 0.015470 0.000536 0.002455
# 5 -0.001605 -0.000383 -0.001001 0.000536 0.022773 -0.001219
# 6 0.001866 0.006434 -0.000038 0.002455 -0.001219 0.031680
#
#
# Mechanical properties :
#
#
# Convention : Reuss Voigt Hill
#
# Bulk Modulus (GPa) = 33.03228 36.51346 34.77287
# Shear Modulus (GPa) = 38.86536 45.22168 42.04352
#
# Velocity S-wave (km/s) = 4.08754 4.40914 4.25138
# Velocity P-wave (km/s) = 6.03968 6.45117 6.24881
#
# Compressibility (1/GPa) = 0.03027342
#
# Stress axis : x y z
#
# Youngs Moduli (GPa) = 91.96696 56.38101 92.21603
#
# Poissons Ratio (x) = 0.06681 -0.06822
# Poissons Ratio (y) = 0.10897 0.38225
# Poissons Ratio (z) = -0.06804 0.23371
#
# Static dielectric constant tensor:
#      x y z
#    x 1.828580 -0.005330 -0.024260 
#    y -0.005330 1.968170 0.028830 
#    z -0.024260 0.028830 1.916580 
# 
# From -- ./inp_files/614879.got.cif
#   From: 2010.05.17/outbox.cif.g08.bks.cpg/sg2_308_cif.got.tgz:614879.got - 2010.06.03 11:33:40.
