data_PCOD9007485
_publ_section_title
;
Structure prediction by ZEFSAII (Michael W. Deem and Ramdas Pophale) SiO2 
 PCOD9007485
Probable space group: P -1
;
_chemical_formula_sum "Si O2"
_cell_formula_units_Z 16
_cell_length_a 11.529697
_cell_length_b 12.274655
_cell_length_c 11.077434
_cell_angle_alpha 102.215864
_cell_angle_beta 56.697423
_cell_angle_gamma 55.539984
_cell_volume 704.808942
_symmetry_space_group_name_H-M "P -1"
_symmetry_group_IT_number 2
_symmetry_cell_setting 'triclinic'
loop_
_space_group_symop_operation_xyz
x,y,z
-x,-y,-z
loop_
_atom_site_type_symbol
_atom_site_label
_atom_site_fract_x
_atom_site_fract_y
_atom_site_fract_z
Si Si1 0.188936 0.785681 0.490679
Si Si2 0.423275 0.192571 0.401455
Si Si3 0.673236 0.939499 0.985638
Si Si4 0.692293 0.389625 0.005032
Si Si5 0.353469 0.832821 0.109832
Si Si6 0.147718 0.560744 0.505243
Si Si7 0.903664 0.995582 0.172092
Si Si8 0.093207 0.563094 0.256895
O O1 0.445854 0.629847 0.232377
O O2 0.241189 0.623821 0.463420
O O3 0.148008 0.891914 0.654677
O O4 0.915316 0.971008 0.623512
O O5 0.344200 0.340132 0.385150
O O6 0.643271 0.102480 0.330249
O O7 0.156786 0.323569 0.631349
O O8 0.559311 0.008907 0.198605
O O9 0.936527 0.703158 0.761609
O O10 0.500000 0.000000 0.000000
O O11 0.699619 0.048322 0.945152
O O12 0.620660 0.314230 0.979079
O O13 0.860335 0.346098 0.804199
O O14 0.871192 0.241064 0.980479
O O15 0.628299 0.680452 0.969251
O O16 0.050199 0.597487 0.435053
O O17 0.000000 0.000000 0.000000
#
# Coordination Sequence:
#
# PCOD9007485 Si02
#       8
#     2   2   2   2   2   2   2   2
#     4  10  22  41  69  95 121 168 218 269 314 375
#     4  12  24  42  64  95 137 171 206 273 318 376
#     4  11  20  36  62  97 127 161 215 254 324 387
#     4  11  24  44  63  95 129 174 218 259 320 381
#     4  10  21  39  61  97 129 162 210 268 321 376
#     4  11  21  38  65  99 126 163 213 266 328 374
#     4  11  25  46  68  92 126 166 226 265 311 382
#     4  12  23  40  65  95 137 172 201 267 334 384
#
# _framework density 22.701186
#
# number of rings (size 3 to 8) (size 9 to 14) (size 15 to 20)
#    0.000    1.000    3.750    4.500    0.000    4.000 
#    6.750    0.625    0.000    0.000    0.000    0.000 
#    0.000    0.000    0.000    0.000    0.000    0.000 
#
# Total GULP energy -89245.310550 kJ/mol
# GULP energy per Si atom -5577.831909 kJ/mol
# Density = 2.264952 g / cm^3
# Si number density = 22.701186 Si / 1000 Ang^3
#
#
#
# Elastic Constant Matrix: (Units=GPa)
#
#
# Indices 1 2 3 4 5 6 
#
# 1 110.4151 5.9421 45.6254 5.0449 -30.8291 -0.6859
# 2 5.9421 65.0487 39.7698 7.6471 -9.3422 -2.3236
# 3 45.6254 39.7698 164.3805 21.2287 -21.1456 -0.7476
# 4 5.0449 7.6471 21.2287 24.1721 3.2515 -6.1044
# 5 -30.8291 -9.3422 -21.1456 3.2515 44.0835 4.5357
# 6 -0.6859 -2.3236 -0.7476 -6.1044 4.5357 27.9767
#
#
#
# Elastic Compliance Matrix: (Units=1/GPa)
#
#
# Indices 1 2 3 4 5 6 
#
# 1 0.012381 0.001813 -0.002520 -0.002411 0.008162 -0.001463
# 2 0.001813 0.018613 -0.004183 -0.002980 0.003397 0.000278
# 3 -0.002520 -0.004183 0.008979 -0.006875 0.002376 -0.002055
# 4 -0.002411 -0.002980 -0.006875 0.053596 -0.010903 0.012972
# 5 0.008162 0.003397 0.002376 -0.010903 0.031775 -0.006985
# 6 -0.001463 0.000278 -0.002055 0.012972 -0.006985 0.039639
#
#
# Mechanical properties :
#
#
# Convention : Reuss Voigt Hill
#
# Bulk Modulus (GPa) = 33.12098 58.05765 45.58931
# Shear Modulus (GPa) = 27.05206 35.81361 31.43283
#
# Velocity S-wave (km/s) = 3.45579 3.97622 3.72510
# Velocity P-wave (km/s) = 5.52675 6.83452 6.21513
#
# Compressibility (1/GPa) = 0.03019235
#
# Stress axis : x y z
#
# Youngs Moduli (GPa) = 80.77169 53.72503 111.36629
#
# Poissons Ratio (x) = -0.09743 0.28069
# Poissons Ratio (y) = -0.14647 0.46590
# Poissons Ratio (z) = 0.20358 0.22476
#
# Static dielectric constant tensor:
#      x y z
#    x 1.883510 0.008320 -0.072040 
#    y 0.008320 1.858470 -0.029570 
#    z -0.072040 -0.029570 2.058830 
# 
# From -- ./inp_files/428344.got.cif
#   From: 2010.05.17/outbox.cif.g08.bks.cpg/sg2_215_cif.got.tgz:428344.got - 2010.06.03 11:33:40.
