data_PCOD9007656
_publ_section_title
;
Structure prediction by ZEFSAII (Michael W. Deem and Ramdas Pophale) SiO2 
 PCOD9007656
Probable space group: P -1
;
_chemical_formula_sum "Si O2"
_cell_formula_units_Z 16
_cell_length_a 7.757458
_cell_length_b 8.900728
_cell_length_c 16.057531
_cell_angle_alpha 127.108639
_cell_angle_beta 122.268629
_cell_angle_gamma 52.495704
_cell_volume 676.694127
_symmetry_space_group_name_H-M "P -1"
_symmetry_group_IT_number 2
_symmetry_cell_setting 'triclinic'
loop_
_space_group_symop_operation_xyz
x,y,z
-x,-y,-z
loop_
_atom_site_type_symbol
_atom_site_label
_atom_site_fract_x
_atom_site_fract_y
_atom_site_fract_z
Si Si1 0.141840 0.392032 0.886538
Si Si2 0.791593 0.318300 0.864294
Si Si3 0.629667 0.036545 0.222864
Si Si4 0.076895 0.868786 0.809310
Si Si5 0.817585 0.544790 0.395180
Si Si6 0.651933 0.419455 0.096778
Si Si7 0.075126 0.175390 0.609722
Si Si8 0.575259 0.507831 0.618471
O O1 0.173049 0.481242 0.837533
O O2 0.931444 0.340295 0.830401
O O3 0.368829 0.176264 0.887945
O O4 0.116843 0.579174 0.005039
O O5 0.529263 0.461890 0.839475
O O6 0.850811 0.081121 0.822616
O O7 0.768509 0.087632 0.203983
O O8 0.451851 0.262981 0.281737
O O9 0.763085 0.933601 0.307235
O O10 0.073178 0.660401 0.703653
O O11 0.202216 0.812260 0.911829
O O12 0.808352 0.740389 0.403502
O O13 0.589637 0.555106 0.385467
O O14 0.000000 0.500000 0.500000
O O15 0.500000 0.500000 0.000000
O O16 0.836042 0.355642 0.634697
O O17 0.000000 0.000000 0.500000
O O18 0.500000 0.500000 0.500000
#
# Coordination Sequence:
#
# PCOD9007656 Si02
#       8
#     2   2   2   2   2   2   2   2
#     4   9  19  38  60  89 121 156 205 256 306 376
#     4   9  20  40  63  85 126 162 202 255 321 361
#     4  10  22  40  61  91 128 163 212 263 309 374
#     4  10  22  41  63  92 128 164 213 262 306 385
#     4  11  23  41  65  94 129 167 214 260 314 376
#     4  10  21  39  62  91 123 161 209 259 313 375
#     4  12  23  41  65  90 126 167 212 264 314 373
#     4  11  22  43  63  89 128 168 213 260 316 374
#
# _framework density 23.644359000000001
#
# number of rings (size 3 to 8) (size 9 to 14) (size 15 to 20)
#    0.000    1.750    2.500    1.500    0.000    7.500 
#    0.000   20.625    0.000    0.000    0.000    0.000 
#    0.000    0.000    0.000    0.000    0.000    0.000 
#
# Total GULP energy -89131.269133 kJ/mol
# GULP energy per Si atom -5570.704321 kJ/mol
# Density = 2.359054 g / cm^3
# Si number density = 23.644359 Si / 1000 Ang^3
#
#
#
# Elastic Constant Matrix: (Units=GPa)
#
#
# Indices 1 2 3 4 5 6 
#
# 1 131.1827 43.7648 -4.8603 -1.8449 -3.2386 14.7901
# 2 43.7648 127.9430 18.5169 9.2531 -3.5936 13.9077
# 3 -4.8603 18.5169 73.9600 4.5226 -5.0219 11.8396
# 4 -1.8449 9.2531 4.5226 50.9612 -3.1256 -6.7954
# 5 -3.2386 -3.5936 -5.0219 -3.1256 26.3300 5.8265
# 6 14.7901 13.9077 11.8396 -6.7954 5.8265 51.8561
#
#
#
# Elastic Compliance Matrix: (Units=1/GPa)
#
#
# Indices 1 2 3 4 5 6 
#
# 1 0.009025 -0.003095 0.001807 0.000524 0.001596 -0.002267
# 2 -0.003095 0.009499 -0.002195 -0.001800 0.000608 -0.001468
# 3 0.001807 -0.002195 0.015132 -0.001186 0.003539 -0.003935
# 4 0.000524 -0.001800 -0.001186 0.020576 0.001338 0.003150
# 5 0.001596 0.000608 0.003539 0.001338 0.040373 -0.005787
# 6 -0.002267 -0.001468 -0.003935 0.003150 -0.005787 0.022286
#
#
# Mechanical properties :
#
#
# Convention : Reuss Voigt Hill
#
# Bulk Modulus (GPa) = 37.46778 49.76983 43.61880
# Shear Modulus (GPa) = 37.66349 44.20709 40.93529
#
# Velocity S-wave (km/s) = 3.99547 4.32866 4.16539
# Velocity P-wave (km/s) = 6.09638 6.78808 6.45151
#
# Compressibility (1/GPa) = 0.02668960
#
# Stress axis : x y z
#
# Youngs Moduli (GPa) = 110.80391 105.27033 66.08561
#
# Poissons Ratio (x) = 0.32584 -0.11944
# Poissons Ratio (y) = 0.34297 0.14508
# Poissons Ratio (z) = -0.20026 0.23110
#
# Static dielectric constant tensor:
#      x y z
#    x 1.992020 0.015310 -0.041310 
#    y 0.015310 1.913080 0.038730 
#    z -0.041310 0.038730 2.142100 
# 
# From -- ./inp_files/557611.got.cif
#   From: 2010.05.17/outbox.cif.g08.bks.cpg/sg2_279_cif.got.tgz:557611.got - 2010.06.03 11:33:40.
