data_PCOD9007614
_publ_section_title
;
Structure prediction by ZEFSAII (Michael W. Deem and Ramdas Pophale) SiO2 
 PCOD9007614
Probable space group: P -1
;
_chemical_formula_sum "Si O2"
_cell_formula_units_Z 15
_cell_length_a 9.763457
_cell_length_b 6.386490
_cell_length_c 14.296711
_cell_angle_alpha 125.141879
_cell_angle_beta 105.674132
_cell_angle_gamma 78.325923
_cell_volume 700.622400
_symmetry_space_group_name_H-M "P -1"
_symmetry_group_IT_number 2
_symmetry_cell_setting 'triclinic'
loop_
_space_group_symop_operation_xyz
x,y,z
-x,-y,-z
loop_
_atom_site_type_symbol
_atom_site_label
_atom_site_fract_x
_atom_site_fract_y
_atom_site_fract_z
Si Si1 0.749519 0.709137 0.086812
Si Si2 0.981251 0.531018 0.394105
Si Si3 0.723986 0.823959 0.329374
Si Si4 0.295845 0.591363 0.466250
Si Si5 0.969756 0.056808 0.146627
Si Si6 0.500000 0.000000 0.000000
Si Si7 0.544218 0.699515 0.421532
Si Si8 0.764552 0.130065 0.953015
O O1 0.743134 0.743961 0.206085
O O2 0.625065 0.889791 0.065214
O O3 0.725993 0.415781 0.982839
O O4 0.900344 0.796572 0.098533
O O5 0.137038 0.583157 0.398871
O O6 0.938586 0.263065 0.274845
O O7 0.000000 0.500000 0.500000
O O8 0.866879 0.748122 0.394402
O O9 0.603908 0.666626 0.319746
O O10 0.688791 0.127445 0.412822
O O11 0.408903 0.554292 0.393858
O O12 0.335353 0.387045 0.502591
O O13 0.137058 0.023479 0.144587
O O14 0.879654 0.155278 0.065055
O O15 0.624913 0.018867 0.942928
O O16 0.500000 0.000000 0.500000
#
# Coordination Sequence:
#
# PCOD9007614 Si02
#       8
#     2   2   2   2   2   1   2   2
#     4  11  22  42  69  93 129 167 215 267 333 388
#     4  12  22  40  63  96 132 167 219 265 315 389
#     4  11  22  39  65  94 125 176 213 263 332 383
#     4  10  21  39  62  89 136 171 216 266 312 387
#     4  10  23  41  66  95 129 172 213 269 328 381
#     4  10  24  42  70  96 124 162 218 274 326 390
#     4   9  20  40  59  85 128 178 211 261 318 371
#     4  10  21  46  67  95 128 164 218 271 330 390
#
# _framework density 21.409535999999999
#
# number of rings (size 3 to 8) (size 9 to 14) (size 15 to 20)
#    0.000    1.600    2.667    2.000    0.000    0.000 
#    9.600    0.000    0.000    0.000    0.000    0.000 
#    0.000    0.000    0.000    0.000    0.000    0.000 
#
# Total GULP energy -83504.710022 kJ/mol
# GULP energy per Si atom -5566.980668 kJ/mol
# Density = 2.136081 g / cm^3
# Si number density = 21.409536 Si / 1000 Ang^3
#
#
#
# Elastic Constant Matrix: (Units=GPa)
#
#
# Indices 1 2 3 4 5 6 
#
# 1 137.1135 27.0001 -9.5194 -7.3930 -13.4453 -2.8879
# 2 27.0001 95.9199 21.9942 -13.4640 -12.8732 -3.4126
# 3 -9.5194 21.9942 35.9726 -5.8034 -14.1603 -5.7915
# 4 -7.3930 -13.4640 -5.8034 24.9123 3.2408 -3.1903
# 5 -13.4453 -12.8732 -14.1603 3.2408 15.2584 -3.2730
# 6 -2.8879 -3.4126 -5.7915 -3.1903 -3.2730 29.4716
#
#
#
# Elastic Compliance Matrix: (Units=1/GPa)
#
#
# Indices 1 2 3 4 5 6 
#
# 1 0.011488 -0.003036 0.015378 0.003268 0.022567 0.006656
# 2 -0.003036 0.013908 -0.008399 0.004643 0.000321 0.000201
# 3 0.015378 -0.008399 0.073058 0.010124 0.077388 0.024582
# 4 0.003268 0.004643 0.010124 0.046020 0.008295 0.008750
# 5 0.022567 0.000321 0.077388 0.008295 0.163586 0.036522
# 6 0.006656 0.000201 0.024582 0.008750 0.036522 0.044440
#
#
# Mechanical properties :
#
#
# Convention : Reuss Voigt Hill
#
# Bulk Modulus (GPa) = 9.40371 38.66174 24.03273
# Shear Modulus (GPa) = 13.15583 29.23052 21.19317
#
# Velocity S-wave (km/s) = 2.48157 3.69901 3.14967
# Velocity P-wave (km/s) = 3.55144 6.02835 4.94741
#
# Compressibility (1/GPa) = 0.10634102
#
# Stress axis : x y z
#
# Youngs Moduli (GPa) = 87.04703 71.90261 13.68774
#
# Poissons Ratio (x) = 0.21828 -0.21050
# Poissons Ratio (y) = 0.26425 0.11496
# Poissons Ratio (z) = -1.33865 0.60392
#
# Static dielectric constant tensor:
#      x y z
#    x 1.834380 0.026370 -0.030500 
#    y 0.026370 1.781990 0.038350 
#    z -0.030500 0.038350 1.741130 
# 
# From -- ./inp_files/488765.got.cif
#   From: 2010.05.17/outbox.cif.g08.bks.cpg/sg2_245_cif.got.tgz:488765.got - 2010.06.03 11:33:40.
