data_PCOD9007120
_publ_section_title
;
Structure prediction by ZEFSAII (Michael W. Deem and Ramdas Pophale) SiO2 
 PCOD9007120
Probable space group: P -1
;
_chemical_formula_sum "Si O2"
_cell_formula_units_Z 16
_cell_length_a 18.961752
_cell_length_b 12.493549
_cell_length_c 8.670692
_cell_angle_alpha 38.549514
_cell_angle_beta 41.932986
_cell_angle_gamma 33.103153
_cell_volume 674.904424
_symmetry_space_group_name_H-M "P -1"
_symmetry_group_IT_number 2
_symmetry_cell_setting 'triclinic'
loop_
_space_group_symop_operation_xyz
x,y,z
-x,-y,-z
loop_
_atom_site_type_symbol
_atom_site_label
_atom_site_fract_x
_atom_site_fract_y
_atom_site_fract_z
Si Si1 0.666918 0.664467 0.404044
Si Si2 0.942852 0.288852 0.377110
Si Si3 0.666918 0.501698 0.929038
Si Si4 0.441467 0.537386 0.382209
Si Si5 0.942852 0.325445 0.680041
Si Si6 0.558532 0.920322 0.823676
Si Si7 0.804284 0.839203 0.366061
Si Si8 0.804284 0.052228 0.829655
O O1 0.823022 0.542490 0.257127
O O2 0.658214 0.591786 0.670892
O O3 0.617567 0.585024 0.439111
O O4 0.565124 0.921132 0.268372
O O5 0.995241 0.254760 0.502380
O O6 0.865766 0.181297 0.617367
O O7 0.066297 0.172958 0.193722
O O8 0.823021 0.311468 0.919853
O O9 0.617567 0.679843 0.943322
O O10 0.565123 0.448622 0.166504
O O11 0.500000 0.500000 0.500000
O O12 0.319694 0.790391 0.260129
O O13 0.865767 0.587169 0.516870
O O14 0.066297 0.194445 0.739986
O O15 0.680305 0.929780 0.579822
O O16 0.500000 0.000000 0.000000
O O17 0.757641 0.992357 0.121181
#
# Coordination Sequence:
#
# PCOD9007120 Si02
#       8
#     2   2   2   2   2   2   2   2
#     4  10  21  39  60  85 119 159 202 246 298 357
#     4   9  21  39  60  88 119 156 198 242 295 349
#     4  10  21  39  60  85 119 159 202 246 298 357
#     4  11  23  38  59  88 120 156 201 252 302 353
#     4   9  21  39  60  88 119 156 198 242 295 349
#     4  11  23  38  59  88 120 156 201 252 302 353
#     4  10  22  40  61  88 122 157 198 245 294 355
#     4  10  22  40  61  88 122 157 198 245 294 355
#
# _framework density 23.707059000000001
#
# number of rings (size 3 to 8) (size 9 to 14) (size 15 to 20)
#    0.000    2.000    0.000    2.250    0.000   13.000 
#    0.000    0.000    0.000    0.000    0.000    0.000 
#    0.000    0.000    0.000    0.000    0.000    0.000 
#
# Total GULP energy -89439.475306 kJ/mol
# GULP energy per Si atom -5589.967207 kJ/mol
# Density = 2.365310 g / cm^3
# Si number density = 23.707059 Si / 1000 Ang^3
#
#
#
# Elastic Constant Matrix: (Units=GPa)
#
#
# Indices 1 2 3 4 5 6 
#
# 1 102.2268 29.3376 25.3388 0.6592 24.7455 -16.7178
# 2 29.3376 85.7276 51.2239 19.7144 6.3005 -13.8795
# 3 25.3388 51.2239 90.8609 17.5121 13.2251 -11.5588
# 4 0.6592 19.7144 17.5121 33.8453 5.9665 9.1086
# 5 24.7455 6.3005 13.2251 5.9665 30.9293 0.3144
# 6 -16.7178 -13.8795 -11.5588 9.1086 0.3144 39.5464
#
#
#
# Elastic Compliance Matrix: (Units=1/GPa)
#
#
# Indices 1 2 3 4 5 6 
#
# 1 0.014323 -0.004037 -0.000176 0.003069 -0.011195 0.003969
# 2 -0.004037 0.021163 -0.008878 -0.009906 0.004572 0.005371
# 3 -0.000176 -0.008878 0.017950 -0.004051 -0.004976 0.003029
# 4 0.003069 -0.009906 -0.004051 0.042026 -0.006680 -0.012990
# 5 -0.011195 0.004572 -0.004976 -0.006680 0.043808 -0.003392
# 6 0.003969 0.005371 0.003029 -0.012990 -0.003392 0.032754
#
#
# Mechanical properties :
#
#
# Convention : Reuss Voigt Hill
#
# Bulk Modulus (GPa) = 36.69001 54.51287 45.60144
# Shear Modulus (GPa) = 24.12070 32.39187 28.25628
#
# Velocity S-wave (km/s) = 3.19321 3.70041 3.45613
# Velocity P-wave (km/s) = 5.39494 6.42664 5.93326
#
# Compressibility (1/GPa) = 0.02725538
#
# Stress axis : x y z
#
# Youngs Moduli (GPa) = 69.81579 47.25251 55.70998
#
# Poissons Ratio (x) = 0.19077 0.00978
# Poissons Ratio (y) = 0.28186 0.49458
# Poissons Ratio (z) = 0.01225 0.41950
#
# Static dielectric constant tensor:
#      x y z
#    x 1.967390 0.076700 -0.064540 
#    y 0.076700 1.935800 -0.056960 
#    z -0.064540 -0.056960 1.929770 
# 
# From -- ./inp_files/347124.got.cif
#   From: 2010.05.17/outbox.cif.g08.bks.cpg/sg2_174_cif.got.tgz:347124.got - 2010.06.03 11:33:40.
