data_PCOD9007745
_publ_section_title
;
Structure prediction by ZEFSAII (Michael W. Deem and Ramdas Pophale) SiO2 
 PCOD9007745
Probable space group: P -1
;
_chemical_formula_sum "Si O2"
_cell_formula_units_Z 12
_cell_length_a 7.503801
_cell_length_b 16.790487
_cell_length_c 5.830190
_cell_angle_alpha 53.371785
_cell_angle_beta 115.893073
_cell_angle_gamma 129.328506
_cell_volume 453.959908
_symmetry_space_group_name_H-M "P -1"
_symmetry_group_IT_number 2
_symmetry_cell_setting 'triclinic'
loop_
_space_group_symop_operation_xyz
x,y,z
-x,-y,-z
loop_
_atom_site_type_symbol
_atom_site_label
_atom_site_fract_x
_atom_site_fract_y
_atom_site_fract_z
Si Si1 0.242121 0.854892 0.165720
Si Si2 0.871119 0.959284 0.249576
Si Si3 0.606631 0.280967 0.221441
Si Si4 0.742189 0.741711 0.310099
Si Si5 0.639577 0.443863 0.338978
Si Si6 0.927960 0.342479 0.917699
O O1 0.988263 0.783224 0.268423
O O2 0.191860 0.789944 0.004963
O O3 0.400727 0.821403 0.459034
O O4 0.287434 0.983579 0.955030
O O5 0.772620 0.822946 0.405012
O O6 0.000000 0.000000 0.500000
O O7 0.000000 0.000000 0.000000
O O8 0.587655 0.377455 0.183858
O O9 0.410116 0.235819 0.996470
O O10 0.860670 0.343049 0.140152
O O11 0.587797 0.610040 0.539157
O O12 0.808857 0.578753 0.151384
O O13 0.792521 0.397277 0.624539
#
# Coordination Sequence:
#
# PCOD9007745 Si02
#       6
#     2   2   2   2   2   2
#     4  10  23  40  65  92 127 169 216 266 324 385
#     4  10  24  43  69  95 132 173 213 275 331 384
#     4  10  21  39  62  94 128 169 213 262 322 392
#     4  10  23  40  65  92 127 169 216 266 324 385
#     4   9  19  37  61  92 129 167 210 265 322 383
#     4   9  19  37  61  92 129 167 210 265 322 383
#
# _framework density 26.434052000000001
#
# number of rings (size 3 to 8) (size 9 to 14) (size 15 to 20)
#    0.000    2.333    0.000    0.500    9.333    2.667 
#    0.000    9.167    0.000    0.000    0.000    0.000 
#    0.000    0.000    0.000    0.000    0.000    0.000 
#
# Total GULP energy -67081.883762 kJ/mol
# GULP energy per Si atom -5590.156980 kJ/mol
# Density = 2.637389 g / cm^3
# Si number density = 26.434052 Si / 1000 Ang^3
#
#
#
# Elastic Constant Matrix: (Units=GPa)
#
#
# Indices 1 2 3 4 5 6 
#
# 1 83.9660 -37.5952 22.2537 11.3060 -5.5797 5.3894
# 2 -37.5952 71.8875 32.3882 6.6067 -11.3343 -9.8797
# 3 22.2537 32.3882 102.7029 19.3587 19.2446 2.8450
# 4 11.3060 6.6067 19.3587 30.4300 2.4040 -3.7145
# 5 -5.5797 -11.3343 19.2446 2.4040 47.7571 -6.2323
# 6 5.3894 -9.8797 2.8450 -3.7145 -6.2323 33.6384
#
#
#
# Elastic Compliance Matrix: (Units=1/GPa)
#
#
# Indices 1 2 3 4 5 6 
#
# 1 0.032853 0.031157 -0.019736 -0.006997 0.020662 0.008612
# 2 0.031157 0.049903 -0.027398 -0.005222 0.028976 0.016774
# 3 -0.019736 -0.027398 0.027740 -0.004103 -0.021298 -0.011630
# 4 -0.006997 -0.005222 -0.004103 0.039842 -0.001889 0.003984
# 5 0.020662 0.028976 -0.021298 -0.001889 0.040780 0.014348
# 6 0.008612 0.016774 -0.011630 0.003984 0.014348 0.037357
#
#
# Mechanical properties :
#
#
# Convention : Reuss Voigt Hill
#
# Bulk Modulus (GPa) = 12.73202 32.51664 22.62433
# Shear Modulus (GPa) = 17.44538 38.46575 27.95557
#
# Velocity S-wave (km/s) = 2.57175 3.81879 3.25554
# Velocity P-wave (km/s) = 3.69399 5.63666 4.76537
#
# Compressibility (1/GPa) = 0.07854211
#
# Stress axis : x y z
#
# Youngs Moduli (GPa) = 30.43859 20.03890 36.04911
#
# Poissons Ratio (x) = -0.62436 0.71146
# Poissons Ratio (y) = -0.94838 0.98769
# Poissons Ratio (z) = 0.60073 0.54903
#
# Static dielectric constant tensor:
#      x y z
#    x 2.103950 0.092040 -0.070320 
#    y 0.092040 2.076040 -0.005440 
#    z -0.070320 -0.005440 2.101320 
# 
# From -- ./inp_files/19480.got.cif
#   From: 2010.05.17/outbox.cif.g08.bks.cpg/sg2_10_cif.got.tgz:19480.got - 2010.06.03 11:33:40.
