data_PCOD9007866
_publ_section_title
;
Structure prediction by ZEFSAII (Michael W. Deem and Ramdas Pophale) SiO2 
 PCOD9007866
Probable space group: P -1
;
_chemical_formula_sum "Si O2"
_cell_formula_units_Z 16
_cell_length_a 13.474906
_cell_length_b 8.460835
_cell_length_c 11.142288
_cell_angle_alpha 39.989715
_cell_angle_beta 90.962217
_cell_angle_gamma 90.769084
_cell_volume 816.256238
_symmetry_space_group_name_H-M "P -1"
_symmetry_group_IT_number 2
_symmetry_cell_setting 'triclinic'
loop_
_space_group_symop_operation_xyz
x,y,z
-x,-y,-z
loop_
_atom_site_type_symbol
_atom_site_label
_atom_site_fract_x
_atom_site_fract_y
_atom_site_fract_z
Si Si1 0.223175 0.201050 0.938875
Si Si2 0.417643 0.495828 0.822491
Si Si3 0.060251 0.143984 0.762561
Si Si4 0.037481 0.385611 0.945372
Si Si5 0.928203 0.552873 0.638758
Si Si6 0.275615 0.675011 0.178706
Si Si7 0.451282 0.349634 0.478405
Si Si8 0.404352 0.805782 0.882012
O O1 0.321341 0.365596 0.840505
O O2 0.152394 0.200398 0.819674
O O3 0.151350 0.303008 0.982729
O O4 0.256560 0.918653 0.115719
O O5 0.472320 0.657592 0.627942
O O6 0.390686 0.650058 0.850736
O O7 0.497570 0.294345 0.988350
O O8 0.084160 0.221311 0.582658
O O9 0.969373 0.320493 0.697883
O O10 0.024685 0.864744 0.935315
O O11 0.000000 0.500000 0.000000
O O12 0.010554 0.579070 0.727735
O O13 0.825412 0.477528 0.740574
O O14 0.357647 0.502363 0.340007
O O15 0.315399 0.764815 0.998075
O O16 0.500000 0.500000 0.500000
O O17 0.419953 0.085380 0.680889
#
# Coordination Sequence:
#
# PCOD9007866 Si02
#       8
#     2   2   2   2   2   2   2   2
#     4  11  21  40  65  90 120 164 208 252 305 366
#     4  10  23  41  63  92 126 163 205 249 311 368
#     4  10  21  41  64  86 124 160 201 262 298 359
#     4  11  23  41  64  91 128 160 197 256 313 366
#     4  10  21  39  63  89 117 160 207 246 306 363
#     4  11  22  37  65  90 118 163 211 248 303 367
#     4  11  23  39  63  94 123 161 207 255 301 362
#     4  10  23  43  62  88 132 163 197 263 308 356
#
# _framework density 19.601686999999998
#
# number of rings (size 3 to 8) (size 9 to 14) (size 15 to 20)
#    0.000    1.500    2.500    2.625    5.250    2.500 
#    0.000    0.000    0.000    0.000    0.000    0.000 
#    0.000    0.000    0.000    0.000    0.000    0.000 
#
# Total GULP energy -89356.742043 kJ/mol
# GULP energy per Si atom -5584.796378 kJ/mol
# Density = 1.955707 g / cm^3
# Si number density = 19.601687 Si / 1000 Ang^3
#
#
#
# Elastic Constant Matrix: (Units=GPa)
#
#
# Indices 1 2 3 4 5 6 
#
# 1 93.6250 14.0393 26.3197 2.0846 -16.7468 -8.0377
# 2 14.0393 42.8077 13.9141 13.7911 1.6566 -17.3948
# 3 26.3197 13.9141 119.9162 7.0922 -14.4064 -6.5338
# 4 2.0846 13.7911 7.0922 22.1740 -5.9468 -5.8391
# 5 -16.7468 1.6566 -14.4064 -5.9468 19.8530 4.4881
# 6 -8.0377 -17.3948 -6.5338 -5.8391 4.4881 30.7953
#
#
#
# Elastic Compliance Matrix: (Units=1/GPa)
#
#
# Indices 1 2 3 4 5 6 
#
# 1 0.014527 -0.008170 -0.000997 0.007558 0.014877 -0.001770
# 2 -0.008170 0.046345 -0.003973 -0.028304 -0.027043 0.021777
# 3 -0.000997 -0.003973 0.009749 0.001029 0.007164 -0.001285
# 4 0.007558 -0.028304 0.001029 0.068638 0.031251 -0.005336
# 5 0.014877 -0.027043 0.007164 0.031251 0.083374 -0.016098
# 6 -0.001770 0.021777 -0.001285 -0.005336 -0.016098 0.045373
#
#
# Mechanical properties :
#
#
# Convention : Reuss Voigt Hill
#
# Bulk Modulus (GPa) = 22.55206 40.54388 31.54797
# Shear Modulus (GPa) = 16.17779 28.03617 22.10698
#
# Velocity S-wave (km/s) = 2.87597 3.78603 3.36193
# Velocity P-wave (km/s) = 4.74957 6.31195 5.58566
#
# Compressibility (1/GPa) = 0.04434184
#
# Stress axis : x y z
#
# Youngs Moduli (GPa) = 68.83716 21.57720 102.57888
#
# Poissons Ratio (x) = 0.17629 0.10223
# Poissons Ratio (y) = 0.56242 0.40751
# Poissons Ratio (z) = 0.06861 0.08572
#
# Static dielectric constant tensor:
#      x y z
#    x 1.703030 -0.022920 0.014090 
#    y -0.022920 1.684970 0.021250 
#    z 0.014090 0.021250 1.688400 
# 
# From -- ./inp_files/416113.got.cif
#   From: 2010.05.17/outbox.cif.g08.bks.cpg/sg2_209_cif.got.tgz:416113.got - 2010.06.03 11:33:40.
