data_PCOD9007019
_publ_section_title
;
Structure prediction by ZEFSAII (Michael W. Deem and Ramdas Pophale) SiO2 
 PCOD9007019
Probable space group: P -1
;
_chemical_formula_sum "Si O2"
_cell_formula_units_Z 12
_cell_length_a 10.450413
_cell_length_b 13.928332
_cell_length_c 9.267196
_cell_angle_alpha 80.283769
_cell_angle_beta 102.830560
_cell_angle_gamma 31.564630
_cell_volume 490.723751
_symmetry_space_group_name_H-M "P -1"
_symmetry_group_IT_number 2
_symmetry_cell_setting 'triclinic'
loop_
_space_group_symop_operation_xyz
x,y,z
-x,-y,-z
loop_
_atom_site_type_symbol
_atom_site_label
_atom_site_fract_x
_atom_site_fract_y
_atom_site_fract_z
Si Si1 0.154404 0.864465 0.227798
Si Si2 0.421759 0.255763 0.565675
Si Si3 0.847137 0.238987 0.239343
Si Si4 0.503881 0.019279 0.827252
Si Si5 0.179942 0.461240 0.143269
Si Si6 0.096955 0.103921 0.634069
O O1 0.954174 0.059166 0.256161
O O2 0.078384 0.807833 0.279659
O O3 0.512225 0.680006 0.373151
O O4 0.000000 0.000000 0.000000
O O5 0.189973 0.427805 0.323056
O O6 0.353036 0.224165 0.679577
O O7 0.789006 0.961705 0.666442
O O8 0.500000 0.500000 0.000000
O O9 0.817751 0.279877 0.391328
O O10 0.276784 0.086808 0.686747
O O11 0.921521 0.727174 0.978948
O O12 0.500000 0.000000 0.000000
O O13 0.572758 0.189836 0.257154
O O14 0.000000 0.500000 0.000000
#
# Coordination Sequence:
#
# PCOD9007019 Si02
#       6
#     2   2   2   2   2   2
#     4  10  21  39  59  84 122 152 194 243 295 346
#     4   9  22  38  60  87 120 150 202 237 293 351
#     4   9  21  38  61  88 114 156 200 242 287 353
#     4  11  23  40  60  90 123 153 197 250 298 348
#     4   9  21  39  62  85 117 162 196 242 296 352
#     4  10  21  40  61  86 119 157 200 239 292 357
#
# _framework density 24.453679000000001
#
# number of rings (size 3 to 8) (size 9 to 14) (size 15 to 20)
#    1.000    1.333    0.000    1.500    2.333    6.667 
#    6.000    0.833    0.000    0.000    0.000    0.000 
#    0.000    0.000    0.000    0.000    0.000    0.000 
#
# Total GULP energy -66810.965048 kJ/mol
# GULP energy per Si atom -5567.580421 kJ/mol
# Density = 2.439802 g / cm^3
# Si number density = 24.453679 Si / 1000 Ang^3
#
#
#
# Elastic Constant Matrix: (Units=GPa)
#
#
# Indices 1 2 3 4 5 6 
#
# 1 100.3981 18.0832 58.3364 12.1489 -18.9130 -23.7281
# 2 18.0832 57.1591 29.5026 -12.0799 -2.3200 -18.6868
# 3 58.3364 29.5026 209.5750 1.1909 10.2716 -17.8301
# 4 12.1489 -12.0799 1.1909 52.9733 9.3992 -8.7181
# 5 -18.9130 -2.3200 10.2716 9.3992 37.8636 13.1851
# 6 -23.7281 -18.6868 -17.8301 -8.7181 13.1851 22.6482
#
#
#
# Elastic Compliance Matrix: (Units=1/GPa)
#
#
# Indices 1 2 3 4 5 6 
#
# 1 0.016108 -0.001725 -0.004134 -0.004514 0.008202 0.005686
# 2 -0.001725 0.037909 0.000356 0.021116 -0.021408 0.050343
# 3 -0.004134 0.000356 0.006752 0.003188 -0.006946 0.006549
# 4 -0.004514 0.021116 0.003188 0.036739 -0.026546 0.044800
# 5 0.008202 -0.021408 -0.006946 -0.026546 0.058062 -0.058560
# 6 0.005686 0.050343 0.006549 0.044800 -0.058560 0.148141
#
#
# Mechanical properties :
#
#
# Convention : Reuss Voigt Hill
#
# Bulk Modulus (GPa) = 20.09480 64.33073 42.21276
# Shear Modulus (GPa) = 15.09185 40.11102 27.60143
#
# Velocity S-wave (km/s) = 2.48697 4.05444 3.36329
# Velocity P-wave (km/s) = 4.05980 6.94854 5.69053
#
# Compressibility (1/GPa) = 0.04976413
#
# Stress axis : x y z
#
# Youngs Moduli (GPa) = 62.08083 26.37877 148.11271
#
# Poissons Ratio (x) = 0.04549 0.61223
# Poissons Ratio (y) = 0.10706 -0.05269
# Poissons Ratio (z) = 0.25661 -0.00938
#
# Static dielectric constant tensor:
#      x y z
#    x 1.981140 -0.037340 -0.031970 
#    y -0.037340 2.031230 -0.034800 
#    z -0.031970 -0.034800 1.889640 
# 
# From -- ./inp_files/277698.got.cif
#   From: 2010.05.17/outbox.cif.g08.bks.cpg/sg2_139_cif.got.tgz:277698.got - 2010.06.03 11:33:40.
