data_PCOD9007712
_publ_section_title
;
Structure prediction by ZEFSAII (Michael W. Deem and Ramdas Pophale) SiO2 
 PCOD9007712
Probable space group: P -1
;
_chemical_formula_sum "Si O2"
_cell_formula_units_Z 16
_cell_length_a 20.450260
_cell_length_b 17.855253
_cell_length_c 8.515171
_cell_angle_alpha 140.334032
_cell_angle_beta 29.537808
_cell_angle_gamma 147.339142
_cell_volume 819.054759
_symmetry_space_group_name_H-M "P -1"
_symmetry_group_IT_number 2
_symmetry_cell_setting 'triclinic'
loop_
_space_group_symop_operation_xyz
x,y,z
-x,-y,-z
loop_
_atom_site_type_symbol
_atom_site_label
_atom_site_fract_x
_atom_site_fract_y
_atom_site_fract_z
Si Si1 0.559899 0.148625 0.187725
Si Si2 0.977198 0.800937 0.662828
Si Si3 0.915638 0.647696 0.869018
Si Si4 0.970202 0.379862 0.988584
Si Si5 0.811621 0.403204 0.860403
Si Si6 0.668960 0.114638 0.247551
Si Si7 0.914638 0.078784 0.852384
Si Si8 0.778499 0.935777 0.232470
O O1 0.623584 0.135325 0.200904
O O2 0.409011 0.160771 0.526914
O O3 0.682022 0.270299 0.013558
O O4 0.500000 0.000000 0.000000
O O5 0.001672 0.721106 0.342152
O O6 0.904869 0.703715 0.811934
O O7 0.141547 0.940696 0.604017
O O8 0.864837 0.853205 0.932152
O O9 0.777317 0.486627 0.936738
O O10 0.071225 0.640325 0.518473
O O11 0.953164 0.763669 0.110368
O O12 0.799341 0.282850 0.275813
O O13 0.000000 0.500000 0.000000
O O14 0.096394 0.471772 0.004804
O O15 0.500000 0.000000 0.500000
O O16 0.787435 0.064405 0.967286
O O17 0.000000 0.000000 0.500000
O O18 0.818344 0.011379 0.104189
#
# Coordination Sequence:
#
# PCOD9007712 Si02
#       8
#     2   2   2   2   2   2   2   2
#     4  12  24  41  63  93 130 164 209 268 336 376
#     4  10  21  41  66  89 124 168 217 260 315 391
#     4  10  21  39  62  93 120 161 214 264 305 373
#     4  12  21  39  66  94 122 170 216 256 321 392
#     4  11  23  38  65  92 127 162 214 267 318 384
#     4  12  24  39  63  97 129 162 213 272 316 369
#     4  11  22  38  64  94 126 166 214 260 313 384
#     4  10  22  40  62  91 126 167 208 266 324 377
#
# _framework density 19.534714000000001
#
# number of rings (size 3 to 8) (size 9 to 14) (size 15 to 20)
#    0.000    1.000    5.000    3.000    0.000    2.000 
#    0.000    1.250    2.750    0.000    0.000    0.000 
#    0.000    0.000    0.000    0.000    0.000    0.000 
#
# Total GULP energy -89087.408244 kJ/mol
# GULP energy per Si atom -5567.963015 kJ/mol
# Density = 1.949025 g / cm^3
# Si number density = 19.534714 Si / 1000 Ang^3
#
#
#
# Elastic Constant Matrix: (Units=GPa)
#
#
# Indices 1 2 3 4 5 6 
#
# 1 91.1829 34.9004 26.3723 2.5606 -14.4348 -10.2470
# 2 34.9004 147.6875 48.8284 -9.9490 6.4398 -25.0441
# 3 26.3723 48.8284 85.3634 10.5287 -3.8142 4.4057
# 4 2.5606 -9.9490 10.5287 43.1001 1.8118 10.5008
# 5 -14.4348 6.4398 -3.8142 1.8118 28.4274 4.7847
# 6 -10.2470 -25.0441 4.4057 10.5008 4.7847 41.7760
#
#
#
# Elastic Compliance Matrix: (Units=1/GPa)
#
#
# Indices 1 2 3 4 5 6 
#
# 1 0.014058 -0.002676 -0.002379 -0.001581 0.007246 0.001662
# 2 -0.002676 0.011162 -0.006540 0.002962 -0.006077 0.006676
# 3 -0.002379 -0.006540 0.017189 -0.004348 0.003809 -0.005660
# 4 -0.001581 0.002962 -0.004348 0.026241 -0.002988 -0.004407
# 5 0.007246 -0.006077 0.003809 -0.002988 0.042000 -0.006327
# 6 0.001662 0.006676 -0.005660 -0.004407 -0.006327 0.030777
#
#
# Mechanical properties :
#
#
# Convention : Reuss Voigt Hill
#
# Bulk Modulus (GPa) = 52.03132 60.49288 56.26210
# Shear Modulus (GPa) = 29.23582 36.93621 33.08601
#
# Velocity S-wave (km/s) = 3.87280 4.35305 4.11993
# Velocity P-wave (km/s) = 6.83310 7.50330 7.17603
#
# Compressibility (1/GPa) = 0.01921919
#
# Stress axis : x y z
#
# Youngs Moduli (GPa) = 71.13554 89.58790 58.17649
#
# Poissons Ratio (x) = 0.23973 0.13842
# Poissons Ratio (y) = 0.19035 0.38045
# Poissons Ratio (z) = 0.16926 0.58587
#
# Static dielectric constant tensor:
#      x y z
#    x -0.909660 0.204290 -1.910630 
#    y 0.204290 1.787590 0.183780 
#    z -1.910630 0.183780 0.349600 
# 
# From -- ./inp_files/346371.got.cif
#   From: 2010.05.17/outbox.cif.g08.bks.cpg/sg2_174_cif.got.tgz:346371.got - 2010.06.03 11:33:40.
