data_PCOD9007786
_publ_section_title
;
Structure prediction by ZEFSAII (Michael W. Deem and Ramdas Pophale) SiO2 
 PCOD9007786
Probable space group: P -1
;
_chemical_formula_sum "Si O2"
_cell_formula_units_Z 16
_cell_length_a 10.328698
_cell_length_b 10.725138
_cell_length_c 11.818723
_cell_angle_alpha 105.967167
_cell_angle_beta 142.492224
_cell_angle_gamma 59.147626
_cell_volume 662.264413
_symmetry_space_group_name_H-M "P -1"
_symmetry_group_IT_number 2
_symmetry_cell_setting 'triclinic'
loop_
_space_group_symop_operation_xyz
x,y,z
-x,-y,-z
loop_
_atom_site_type_symbol
_atom_site_label
_atom_site_fract_x
_atom_site_fract_y
_atom_site_fract_z
Si Si1 0.169369 0.888311 0.823848
Si Si2 0.715819 0.702408 0.110327
Si Si3 0.107688 0.627924 0.176391
Si Si4 0.455400 0.688649 0.604345
Si Si5 0.106678 0.866358 0.127839
Si Si6 0.575359 0.829024 0.532401
Si Si7 0.133159 0.622171 0.792321
Si Si8 0.072332 0.735077 0.540040
O O1 0.438355 0.838557 0.952917
O O2 0.727195 0.543905 0.102514
O O3 0.210692 0.748656 0.898643
O O4 0.031039 0.043555 0.830449
O O5 0.853058 0.386866 0.338068
O O6 0.865462 0.680658 0.094277
O O7 0.868152 0.731757 0.320388
O O8 0.295633 0.654395 0.393383
O O9 0.273407 0.453087 0.225169
O O10 0.060623 0.728190 0.057543
O O11 0.504733 0.808909 0.605653
O O12 0.296830 0.715609 0.613498
O O13 0.395422 0.802337 0.320330
O O14 0.000000 0.000000 0.000000
O O15 0.851045 0.707608 0.659779
O O16 0.500000 0.000000 0.500000
O O17 0.004022 0.881094 0.605675
#
# Coordination Sequence:
#
# PCOD9007786 Si02
#       8
#     2   2   2   2   2   2   2   2
#     4  10  24  41  59  97 134 164 219 271 319 399
#     4  11  20  41  66  94 132 174 211 270 336 382
#     4   9  20  38  65  93 123 175 221 266 322 388
#     4   9  18  39  66  95 127 163 226 270 314 393
#     4  11  25  42  62  91 132 175 216 271 330 390
#     4  11  20  41  67  91 129 169 216 269 328 388
#     4  10  21  39  62  97 130 166 217 268 322 387
#     4   9  22  38  64  99 123 174 214 267 329 380
#
# _framework density 24.159534000000001
#
# number of rings (size 3 to 8) (size 9 to 14) (size 15 to 20)
#    0.750    1.250    2.500    0.750    3.500    1.500 
#    2.250   10.625    0.000    0.000    0.000    0.000 
#    0.000    0.000    0.000    0.000    0.000    0.000 
#
# Total GULP energy -89376.866192 kJ/mol
# GULP energy per Si atom -5586.054137 kJ/mol
# Density = 2.410455 g / cm^3
# Si number density = 24.159534 Si / 1000 Ang^3
#
#
#
# Elastic Constant Matrix: (Units=GPa)
#
#
# Indices 1 2 3 4 5 6 
#
# 1 108.7621 33.3169 32.4436 -15.2550 3.3294 22.5136
# 2 33.3169 81.0130 25.6378 -16.9239 -3.5322 12.3039
# 3 32.4436 25.6378 66.1556 -8.7171 18.0225 -0.3763
# 4 -15.2550 -16.9239 -8.7171 35.4289 0.3524 -0.9450
# 5 3.3294 -3.5322 18.0225 0.3524 47.0525 -7.2899
# 6 22.5136 12.3039 -0.3763 -0.9450 -7.2899 35.3314
#
#
#
# Elastic Compliance Matrix: (Units=1/GPa)
#
#
# Indices 1 2 3 4 5 6 
#
# 1 0.013535 -0.001959 -0.005402 0.003354 -0.000296 -0.007972
# 2 -0.001959 0.016842 -0.005633 0.005682 0.002910 -0.003925
# 3 -0.005402 -0.005633 0.022215 0.000636 -0.007932 0.004021
# 4 0.003354 0.005682 0.000636 0.032457 -0.000826 -0.003411
# 5 -0.000296 0.002910 -0.007932 -0.000826 0.025198 0.004268
# 6 -0.007972 -0.003925 0.004021 -0.003411 0.004268 0.035582
#
#
# Mechanical properties :
#
#
# Convention : Reuss Voigt Hill
#
# Bulk Modulus (GPa) = 37.58494 48.74750 43.16622
# Shear Modulus (GPa) = 27.67274 34.53140 31.10207
#
# Velocity S-wave (km/s) = 3.38807 3.78472 3.59188
# Velocity P-wave (km/s) = 5.55843 6.27056 5.92520
#
# Compressibility (1/GPa) = 0.02660640
#
# Stress axis : x y z
#
# Youngs Moduli (GPa) = 73.88135 59.37676 45.01442
#
# Poissons Ratio (x) = 0.11629 0.24315
# Poissons Ratio (y) = 0.14470 0.25355
# Poissons Ratio (z) = 0.39908 0.33444
#
# Static dielectric constant tensor:
#      x y z
#    x 1.954820 0.033840 -0.063310 
#    y 0.033840 1.959730 0.043140 
#    z -0.063310 0.043140 1.938530 
# 
# From -- ./inp_files/497894.got.cif
#   From: 2010.05.17/outbox.cif.g08.bks.cpg/sg2_249_cif.got.tgz:497894.got - 2010.06.03 11:33:40.
