data_PCOD9007045
_publ_section_title
;
Structure prediction by ZEFSAII (Michael W. Deem and Ramdas Pophale) SiO2 
 PCOD9007045
Probable space group: P -1
;
_chemical_formula_sum "Si O2"
_cell_formula_units_Z 16
_cell_length_a 8.341540
_cell_length_b 22.665542
_cell_length_c 14.795822
_cell_angle_alpha 154.473607
_cell_angle_beta 39.890658
_cell_angle_gamma 143.421772
_cell_volume 708.401395
_symmetry_space_group_name_H-M "P -1"
_symmetry_group_IT_number 2
_symmetry_cell_setting 'triclinic'
loop_
_space_group_symop_operation_xyz
x,y,z
-x,-y,-z
loop_
_atom_site_type_symbol
_atom_site_label
_atom_site_fract_x
_atom_site_fract_y
_atom_site_fract_z
Si Si1 0.748645 0.840890 0.372942
Si Si2 0.508966 0.686431 0.884690
Si Si3 0.213232 0.995824 0.586408
Si Si4 0.996630 0.037663 0.919630
Si Si5 0.244327 0.741965 0.587146
Si Si6 0.945642 0.667533 0.158659
Si Si7 0.238602 0.300964 0.387269
Si Si8 0.491326 0.554921 0.339976
O O1 0.690170 0.861883 0.324578
O O2 0.510501 0.821924 0.520262
O O3 0.824065 0.700567 0.164204
O O4 0.000000 0.000000 0.500000
O O5 0.524883 0.650124 0.722915
O O6 0.656513 0.609990 0.781813
O O7 0.684778 0.862944 0.058749
O O8 0.204375 0.633529 0.978082
O O9 0.010367 0.010430 0.769743
O O10 0.500000 0.000000 0.500000
O O11 0.057832 0.831090 0.383542
O O12 0.887757 0.878733 0.795553
O O13 0.831817 0.135292 0.157193
O O14 0.312341 0.633474 0.477595
O O15 0.999896 0.665720 0.514498
O O16 0.711558 0.560126 0.175891
O O17 0.347310 0.361348 0.523071
#
# Coordination Sequence:
#
# PCOD9007045 Si02
#       8
#     2   2   2   2   2   2   2   2
#     4   9  21  34  57  89 125 163 198 256 320 359
#     4  11  23  40  66  89 125 167 209 252 315 371
#     4  11  19  35  61  90 123 155 205 253 311 365
#     4  11  23  38  64  98 122 164 206 265 313 363
#     4  10  23  41  62  92 131 159 209 261 309 374
#     4  10  21  39  59  88 122 163 202 258 304 370
#     4  11  24  41  65  92 126 164 208 258 316 363
#     4  11  24  44  63  92 126 171 206 253 315 374
#
# _framework density 22.586065000000001
#
# number of rings (size 3 to 8) (size 9 to 14) (size 15 to 20)
#    0.000    1.500    2.500    3.000    5.250    3.500 
#    0.000    1.250    0.000    3.750    0.000    0.000 
#    0.000    0.000    0.000    0.000    0.000    0.000 
#
# Total GULP energy -89301.501337 kJ/mol
# GULP energy per Si atom -5581.343834 kJ/mol
# Density = 2.253466 g / cm^3
# Si number density = 22.586065 Si / 1000 Ang^3
#
#
#
# Elastic Constant Matrix: (Units=GPa)
#
#
# Indices 1 2 3 4 5 6 
#
# 1 105.9950 36.9950 28.0607 -2.4882 -24.6600 -30.5438
# 2 36.9950 110.4486 34.8137 -3.2088 -18.5114 -35.4940
# 3 28.0607 34.8137 66.0342 -14.8870 -16.6294 -10.3220
# 4 -2.4882 -3.2088 -14.8870 32.3694 8.4911 0.0424
# 5 -24.6600 -18.5114 -16.6294 8.4911 30.9659 5.8746
# 6 -30.5438 -35.4940 -10.3220 0.0424 5.8746 49.8211
#
#
#
# Elastic Compliance Matrix: (Units=1/GPa)
#
#
# Indices 1 2 3 4 5 6 
#
# 1 0.014416 -0.000081 -0.003335 -0.002826 0.009084 0.007021
# 2 -0.000081 0.014213 -0.005538 -0.002337 0.004506 0.008400
# 3 -0.003335 -0.005538 0.022053 0.008301 0.003960 -0.001895
# 4 -0.002826 -0.002337 0.008301 0.036655 -0.009121 -0.000634
# 5 0.009084 0.004506 0.003960 -0.009121 0.046056 0.004176
# 6 0.007021 0.008400 -0.001895 -0.000634 0.004176 0.029476
#
#
# Mechanical properties :
#
#
# Convention : Reuss Voigt Hill
#
# Bulk Modulus (GPa) = 30.51288 53.57961 42.04625
# Shear Modulus (GPa) = 26.08211 34.80516 30.44363
#
# Velocity S-wave (km/s) = 3.40190 3.92982 3.67535
# Velocity P-wave (km/s) = 5.38233 6.66072 6.05536
#
# Compressibility (1/GPa) = 0.03277304
#
# Stress axis : x y z
#
# Youngs Moduli (GPa) = 69.36913 70.35641 45.34515
#
# Poissons Ratio (x) = 0.00568 0.15124
# Poissons Ratio (y) = 0.00560 0.25114
# Poissons Ratio (z) = 0.23137 0.38966
#
# Static dielectric constant tensor:
#      x y z
#    x 2.041040 -0.003080 -0.007230 
#    y -0.003080 1.824710 0.005580 
#    z -0.007230 0.005580 1.885300 
# 
# From -- ./inp_files/333152.got.cif
#   From: 2010.05.17/outbox.cif.g08.bks.cpg/sg2_167_cif.got.tgz:333152.got - 2010.06.03 11:33:40.
