data_PCOD9007283
_publ_section_title
;
Structure prediction by ZEFSAII (Michael W. Deem and Ramdas Pophale) SiO2 
 PCOD9007283
Probable space group: P -1
;
_chemical_formula_sum "Si O2"
_cell_formula_units_Z 14
_cell_length_a 13.519417
_cell_length_b 7.251000
_cell_length_c 7.791874
_cell_angle_alpha 129.874802
_cell_angle_beta 105.119151
_cell_angle_gamma 79.901732
_cell_volume 565.875627
_symmetry_space_group_name_H-M "P -1"
_symmetry_group_IT_number 2
_symmetry_cell_setting 'triclinic'
loop_
_space_group_symop_operation_xyz
x,y,z
-x,-y,-z
loop_
_atom_site_type_symbol
_atom_site_label
_atom_site_fract_x
_atom_site_fract_y
_atom_site_fract_z
Si Si1 0.893598 0.369640 0.387435
Si Si2 0.206562 0.919839 0.068816
Si Si3 0.337660 0.779586 0.347061
Si Si4 0.147601 0.529201 0.218984
Si Si5 0.988246 0.108660 0.822005
Si Si6 0.345903 0.969406 0.855117
Si Si7 0.496821 0.413807 0.249355
O O1 0.826419 0.476023 0.571834
O O2 0.000000 0.500000 0.500000
O O3 0.829899 0.346244 0.170699
O O4 0.935896 0.109071 0.308755
O O5 0.292879 0.933638 0.261268
O O6 0.096360 0.993846 0.142652
O O7 0.252014 0.023725 0.974776
O O8 0.254545 0.563631 0.192339
O O9 0.332798 0.913479 0.611221
O O10 0.447411 0.652392 0.282127
O O11 0.085817 0.772893 0.282335
O O12 0.064094 0.325561 0.031277
O O13 0.394811 0.721089 0.808724
O O14 0.421392 0.192147 0.045713
O O15 0.500000 0.500000 0.500000
#
# Coordination Sequence:
#
# PCOD9007283 Si02
#       7
#     2   2   2   2   2   2   2
#     4  12  23  38  58  87 128 168 209 252 301 356
#     4  11  23  40  60  93 124 159 209 252 299 362
#     4  10  22  40  61  94 123 155 205 251 301 364
#     4  10  21  39  61  85 124 168 206 251 302 357
#     4  10  23  40  57  87 127 165 209 253 298 358
#     4  10  21  43  66  89 120 159 196 249 316 366
#     4   9  21  43  68  89 120 155 196 251 312 376
#
# _framework density 24.74042
#
# number of rings (size 3 to 8) (size 9 to 14) (size 15 to 20)
#    0.000    1.714    2.857    0.857    2.000    0.571 
#    5.143    6.429    0.000    0.000    0.000    0.000 
#    0.000    0.000    0.000    0.000    0.000    0.000 
#
# Total GULP energy -77982.200648 kJ/mol
# GULP energy per Si atom -5570.157189 kJ/mol
# Density = 2.468411 g / cm^3
# Si number density = 24.740420 Si / 1000 Ang^3
#
#
#
# Elastic Constant Matrix: (Units=GPa)
#
#
# Indices 1 2 3 4 5 6 
#
# 1 59.3151 7.9788 19.6402 -7.4937 -1.7485 -11.1830
# 2 7.9788 73.7035 32.7379 -4.0586 4.2160 -13.5646
# 3 19.6402 32.7379 102.2043 -15.0828 9.7108 -2.6390
# 4 -7.4937 -4.0586 -15.0828 29.4424 -2.9400 7.9872
# 5 -1.7485 4.2160 9.7108 -2.9400 36.2060 -0.4935
# 6 -11.1830 -13.5646 -2.6390 7.9872 -0.4935 37.7287
#
#
#
# Elastic Compliance Matrix: (Units=1/GPa)
#
#
# Indices 1 2 3 4 5 6 
#
# 1 0.019294 0.000485 -0.003646 0.001889 0.002078 0.005265
# 2 0.000485 0.017122 -0.005689 -0.002210 -0.000537 0.006363
# 3 -0.003646 -0.005689 0.013325 0.005785 -0.002665 -0.003453
# 4 0.001889 -0.002210 0.005785 0.039510 0.001894 -0.008170
# 5 0.002078 -0.000537 -0.002665 0.001894 0.028654 0.000210
# 6 0.005265 0.006363 -0.003453 -0.008170 0.000210 0.031844
#
#
# Mechanical properties :
#
#
# Convention : Reuss Voigt Hill
#
# Bulk Modulus (GPa) = 31.20908 39.54852 35.37880
# Shear Modulus (GPa) = 28.06981 32.33315 30.20148
#
# Velocity S-wave (km/s) = 3.37200 3.61902 3.49769
# Velocity P-wave (km/s) = 5.27280 5.78647 5.53560
#
# Compressibility (1/GPa) = 0.03204196
#
# Stress axis : x y z
#
# Youngs Moduli (GPa) = 51.83055 58.40385 75.04839
#
# Poissons Ratio (x) = -0.02832 0.27360
# Poissons Ratio (y) = -0.02513 0.42692
# Poissons Ratio (z) = 0.18896 0.33223
#
# Static dielectric constant tensor:
#      x y z
#    x 1.959860 -0.014700 -0.000150 
#    y -0.014700 2.062890 0.003400 
#    z -0.000150 0.003400 2.050460 
# 
# From -- ./inp_files/297114.got.cif
#   From: 2010.05.17/outbox.cif.g08.bks.cpg/sg2_149_cif.got.tgz:297114.got - 2010.06.03 11:33:40.
