data_PCOD9007209
_publ_section_title
;
Structure prediction by ZEFSAII (Michael W. Deem and Ramdas Pophale) SiO2 
 PCOD9007209
Probable space group: P -1
;
_chemical_formula_sum "Si O2"
_cell_formula_units_Z 12
_cell_length_a 13.069451
_cell_length_b 9.964368
_cell_length_c 5.091786
_cell_angle_alpha 61.922079
_cell_angle_beta 100.508913
_cell_angle_gamma 91.026815
_cell_volume 573.476797
_symmetry_space_group_name_H-M "P -1"
_symmetry_group_IT_number 2
_symmetry_cell_setting 'triclinic'
loop_
_space_group_symop_operation_xyz
x,y,z
-x,-y,-z
loop_
_atom_site_type_symbol
_atom_site_label
_atom_site_fract_x
_atom_site_fract_y
_atom_site_fract_z
Si Si1 0.544067 0.148648 0.766504
Si Si2 0.925399 0.994305 0.719312
Si Si3 0.104637 0.344074 0.933360
Si Si4 0.745905 0.232756 0.578041
Si Si5 0.543745 0.331042 0.110729
Si Si6 0.135381 0.530074 0.266146
O O1 0.668857 0.126354 0.794747
O O2 0.499328 0.211189 0.408788
O O3 0.525601 0.280812 0.853177
O O4 0.500000 0.000000 0.000000
O O5 0.840238 0.136421 0.571066
O O6 0.872111 0.834713 0.844860
O O7 0.000000 0.000000 0.500000
O O8 0.000000 0.000000 0.000000
O O9 0.128798 0.397623 0.603041
O O10 0.979784 0.380833 0.882651
O O11 0.157468 0.450298 0.071117
O O12 0.666445 0.314022 0.256327
O O13 0.788016 0.352813 0.689313
O O14 0.500000 0.500000 0.000000
#
# Coordination Sequence:
#
# PCOD9007209 Si02
#       6
#     2   2   2   2   2   2
#     4  10  23  45  71  98 135 171 224 291 346 399
#     4  12  25  41  64  95 137 180 219 267 325 399
#     4  10  22  38  60  88 130 169 219 262 317 368
#     4  10  26  40  72  94 137 177 229 265 345 398
#     4  10  23  44  70  97 131 174 225 283 345 399
#     4  10  21  39  60  90 125 173 215 272 307 388
#
# _framework density 20.924996
#
# number of rings (size 3 to 8) (size 9 to 14) (size 15 to 20)
#    1.000    0.667    1.667    2.000    9.333    0.000 
#    3.000    0.000    0.000    0.000    0.000    0.000 
#    0.000    0.000    0.000    0.000    0.000    0.000 
#
# Total GULP energy -67022.131964 kJ/mol
# GULP energy per Si atom -5585.177664 kJ/mol
# Density = 2.087737 g / cm^3
# Si number density = 20.924996 Si / 1000 Ang^3
#
#
#
# Elastic Constant Matrix: (Units=GPa)
#
#
# Indices 1 2 3 4 5 6 
#
# 1 66.2073 22.5532 15.9497 -11.8213 -5.9540 -8.7523
# 2 22.5532 75.6744 5.3624 -2.5806 6.2618 -9.2539
# 3 15.9497 5.3624 58.7140 1.7586 -3.1780 -17.1150
# 4 -11.8213 -2.5806 1.7586 40.3707 -6.4913 -5.9489
# 5 -5.9540 6.2618 -3.1780 -6.4913 28.3324 -4.6019
# 6 -8.7523 -9.2539 -17.1150 -5.9489 -4.6019 38.5133
#
#
#
# Elastic Compliance Matrix: (Units=1/GPa)
#
#
# Indices 1 2 3 4 5 6 
#
# 1 0.020474 -0.005748 -0.003798 0.007529 0.007463 0.003639
# 2 -0.005748 0.015461 0.000496 -0.001163 -0.004526 0.001908
# 3 -0.003798 0.000496 0.020731 -0.000244 0.002785 0.008764
# 4 0.007529 -0.001163 -0.000244 0.029512 0.009717 0.007043
# 5 0.007463 -0.004526 0.002785 0.009717 0.041757 0.008337
# 6 0.003639 0.001908 0.008764 0.007043 0.008337 0.033229
#
#
# Mechanical properties :
#
#
# Convention : Reuss Voigt Hill
#
# Bulk Modulus (GPa) = 25.93063 32.03625 28.98344
# Shear Modulus (GPa) = 26.02561 31.89197 28.95879
#
# Velocity S-wave (km/s) = 3.53052 3.90822 3.72416
# Velocity P-wave (km/s) = 5.38874 5.97569 5.68979
#
# Compressibility (1/GPa) = 0.03856443
#
# Stress axis : x y z
#
# Youngs Moduli (GPa) = 48.84334 64.67969 48.23751
#
# Poissons Ratio (x) = 0.37181 0.18319
# Poissons Ratio (y) = 0.28077 -0.02391
# Poissons Ratio (z) = 0.18549 -0.03206
#
# Static dielectric constant tensor:
#      x y z
#    x 1.755040 0.022940 -0.023550 
#    y 0.022940 1.724080 -0.008510 
#    z -0.023550 -0.008510 1.760190 
# 
# From -- ./inp_files/86159.got.cif
#   From: 2010.05.17/outbox.cif.g08.bks.cpg/sg2_44_cif.got.tgz:86159.got - 2010.06.03 11:33:40.
