data_PCOD9007240
_publ_section_title
;
Structure prediction by ZEFSAII (Michael W. Deem and Ramdas Pophale) SiO2 
 PCOD9007240
Probable space group: P -1
;
_chemical_formula_sum "Si O2"
_cell_formula_units_Z 16
_cell_length_a 14.544750
_cell_length_b 8.210191
_cell_length_c 11.210938
_cell_angle_alpha 67.510890
_cell_angle_beta 129.963093
_cell_angle_gamma 83.440992
_cell_volume 816.500334
_symmetry_space_group_name_H-M "P -1"
_symmetry_group_IT_number 2
_symmetry_cell_setting 'triclinic'
loop_
_space_group_symop_operation_xyz
x,y,z
-x,-y,-z
loop_
_atom_site_type_symbol
_atom_site_label
_atom_site_fract_x
_atom_site_fract_y
_atom_site_fract_z
Si Si1 0.671722 0.055699 0.168913
Si Si2 0.203397 0.684171 0.810633
Si Si3 0.511377 0.702710 0.457761
Si Si4 0.733552 0.669356 0.470823
Si Si5 0.674529 0.911380 0.949329
Si Si6 0.393549 0.480701 0.796444
Si Si7 0.969910 0.510412 0.328339
Si Si8 0.552729 0.680864 0.769958
O O1 0.796850 0.104167 0.242598
O O2 0.698983 0.895264 0.339495
O O3 0.535470 0.277435 0.010155
O O4 0.649113 0.965377 0.052626
O O5 0.287675 0.574094 0.790497
O O6 0.069472 0.660720 0.694266
O O7 0.303196 0.539958 0.040628
O O8 0.500000 0.500000 0.500000
O O9 0.651413 0.672091 0.519447
O O10 0.514924 0.757038 0.582878
O O11 0.379836 0.878647 0.226269
O O12 0.670263 0.589131 0.340272
O O13 0.898808 0.529184 0.630049
O O14 0.584310 0.823706 0.839011
O O15 0.834453 0.730377 0.125749
O O16 0.435708 0.638134 0.735369
O O17 0.000000 0.500000 0.500000
#
# Coordination Sequence:
#
# PCOD9007240 Si02
#       8
#     2   2   2   2   2   2   2   2
#     4  11  21  35  62  97 123 158 208 263 314 359
#     4  10  22  37  64  93 133 155 203 261 317 370
#     4  12  24  42  64  92 122 164 218 261 301 367
#     4  12  23  37  64  92 128 161 207 253 312 372
#     4  11  23  41  67  89 128 166 207 257 314 372
#     4  11  20  36  64  96 128 152 204 274 314 359
#     4  11  22  42  61  95 131 166 194 254 323 375
#     4  10  21  39  60  94 124 160 208 259 315 356
#
# _framework density 19.595828000000001
#
# number of rings (size 3 to 8) (size 9 to 14) (size 15 to 20)
#    0.000    1.000    5.000    3.750    5.250    0.500 
#    0.000    3.125    0.000    0.000    0.000    0.000 
#    0.000    0.000    0.000    0.000    0.000    0.000 
#
# Total GULP energy -89387.679661 kJ/mol
# GULP energy per Si atom -5586.729979 kJ/mol
# Density = 1.955123 g / cm^3
# Si number density = 19.595828 Si / 1000 Ang^3
#
#
#
# Elastic Constant Matrix: (Units=GPa)
#
#
# Indices 1 2 3 4 5 6 
#
# 1 109.1030 25.3356 48.9876 -7.1440 -1.7032 6.8074
# 2 25.3356 85.3011 14.1549 -4.6977 -3.6737 24.7184
# 3 48.9876 14.1549 80.7029 -14.5056 -0.9487 5.9121
# 4 -7.1440 -4.6977 -14.5056 35.0537 3.9170 -1.0825
# 5 -1.7032 -3.6737 -0.9487 3.9170 32.4218 3.0694
# 6 6.8074 24.7184 5.9121 -1.0825 3.0694 38.9518
#
#
#
# Elastic Compliance Matrix: (Units=1/GPa)
#
#
# Indices 1 2 3 4 5 6 
#
# 1 0.013200 -0.002868 -0.007714 -0.000888 0.000189 0.000644
# 2 -0.002868 0.015489 -0.000093 0.000893 0.002391 -0.009477
# 3 -0.007714 -0.000093 0.018244 0.005985 -0.000495 -0.001157
# 4 -0.000888 0.000893 0.005985 0.031333 -0.003540 -0.000170
# 5 0.000189 0.002391 -0.000495 -0.003540 0.031925 -0.004089
# 6 0.000644 -0.009477 -0.001157 -0.000170 -0.004089 0.032067
#
#
# Mechanical properties :
#
#
# Convention : Reuss Voigt Hill
#
# Bulk Modulus (GPa) = 39.08744 50.22926 44.65835
# Shear Modulus (GPa) = 29.04678 33.72738 31.38708
#
# Velocity S-wave (km/s) = 3.85423 4.15318 4.00649
# Velocity P-wave (km/s) = 6.30848 6.97759 6.65146
#
# Compressibility (1/GPa) = 0.02558367
#
# Stress axis : x y z
#
# Youngs Moduli (GPa) = 75.75848 64.56235 54.81105
#
# Poissons Ratio (x) = 0.18516 0.42281
# Poissons Ratio (y) = 0.21727 0.00509
# Poissons Ratio (z) = 0.58440 0.00600
#
# Static dielectric constant tensor:
#      x y z
#    x 1.701030 0.017820 0.012040 
#    y 0.017820 1.747200 -0.012850 
#    z 0.012040 -0.012850 1.701460 
# 
# From -- ./inp_files/444218.got.cif
#   From: 2010.05.17/outbox.cif.g08.bks.cpg/sg2_223_cif.got.tgz:444218.got - 2010.06.03 11:33:40.
