data_PCOD9007953
_publ_section_title
;
Structure prediction by ZEFSAII (Michael W. Deem and Ramdas Pophale) SiO2 
 PCOD9007953
Probable space group: P -1
;
_chemical_formula_sum "Si O2"
_cell_formula_units_Z 16
_cell_length_a 8.940808
_cell_length_b 20.261496
_cell_length_c 11.219669
_cell_angle_alpha 140.182343
_cell_angle_beta 31.759352
_cell_angle_gamma 137.452965
_cell_volume 663.616351
_symmetry_space_group_name_H-M "P -1"
_symmetry_group_IT_number 2
_symmetry_cell_setting 'triclinic'
loop_
_space_group_symop_operation_xyz
x,y,z
-x,-y,-z
loop_
_atom_site_type_symbol
_atom_site_label
_atom_site_fract_x
_atom_site_fract_y
_atom_site_fract_z
Si Si1 0.734069 0.447596 0.332122
Si Si2 0.492918 0.714377 0.532838
Si Si3 0.053007 0.592293 0.494296
Si Si4 0.173341 0.756694 0.152270
Si Si5 0.688821 0.756599 0.951201
Si Si6 0.714275 0.103565 0.942913
Si Si7 0.239684 0.068080 0.655501
Si Si8 0.901962 0.090114 0.266207
O O1 0.500000 0.500000 0.500000
O O2 0.582282 0.385609 0.465601
O O3 0.013383 0.537024 0.315316
O O4 0.816570 0.355614 0.071255
O O5 0.359381 0.673642 0.437299
O O6 0.322633 0.798712 0.814251
O O7 0.837656 0.760294 0.378737
O O8 0.000000 0.500000 0.500000
O O9 0.790632 0.651640 0.766352
O O10 0.351622 0.753117 0.147487
O O11 0.339352 0.857840 0.099459
O O12 0.868158 0.800725 0.769619
O O13 0.790823 0.843139 0.104354
O O14 0.035823 0.082498 0.705977
O O15 0.500000 0.000000 0.000000
O O16 0.582826 0.089507 0.431208
O O17 0.133610 0.954055 0.635990
O O18 0.000000 0.000000 0.000000
#
# Coordination Sequence:
#
# PCOD9007953 Si02
#       8
#     2   2   2   2   2   2   2   2
#     4  10  21  43  66  91 126 165 213 267 318 375
#     4  10  24  43  63  94 132 163 213 263 317 385
#     4  10  21  42  66  88 128 168 207 268 318 371
#     4  11  25  40  64  98 128 169 212 261 324 378
#     4  11  21  40  63  90 129 166 207 262 316 372
#     4  11  24  41  64  92 134 169 210 262 316 379
#     4  10  21  39  63  92 121 169 217 253 314 380
#     4   9  21  37  63  91 123 159 215 261 307 367
#
# _framework density 24.110316999999998
#
# number of rings (size 3 to 8) (size 9 to 14) (size 15 to 20)
#    0.000    1.750    2.500    0.750    1.750    6.500 
#    0.000    0.000    0.000    0.000    0.000    0.000 
#    0.000    0.000    0.000    0.000    0.000    0.000 
#
# Total GULP energy -89486.704852 kJ/mol
# GULP energy per Si atom -5592.919053 kJ/mol
# Density = 2.405544 g / cm^3
# Si number density = 24.110317 Si / 1000 Ang^3
#
#
#
# Elastic Constant Matrix: (Units=GPa)
#
#
# Indices 1 2 3 4 5 6 
#
# 1 124.6474 33.4904 30.7698 14.2189 -38.5341 2.4819
# 2 33.4904 77.0810 26.0250 19.2759 -16.9264 -4.8454
# 3 30.7698 26.0250 85.3972 11.3488 -43.5778 -18.3174
# 4 14.2189 19.2759 11.3488 38.6588 0.7190 -9.6979
# 5 -38.5341 -16.9264 -43.5778 0.7190 48.4196 7.4802
# 6 2.4819 -4.8454 -18.3174 -9.6979 7.4802 19.4475
#
#
#
# Elastic Compliance Matrix: (Units=1/GPa)
#
#
# Indices 1 2 3 4 5 6 
#
# 1 0.013006 -0.002339 0.001042 -0.006420 0.011966 -0.009066
# 2 -0.002339 0.017140 -0.002928 -0.007550 0.002029 -0.002735
# 3 0.001042 -0.002928 0.026961 -0.003665 0.021920 0.014273
# 4 -0.006420 -0.007550 -0.003665 0.038445 -0.014759 0.020334
# 5 0.011966 0.002029 0.021920 -0.014759 0.052029 -0.007748
# 6 -0.009066 -0.002735 0.014273 0.020334 -0.007748 0.078460
#
#
# Mechanical properties :
#
#
# Convention : Reuss Voigt Hill
#
# Bulk Modulus (GPa) = 20.55268 51.96622 36.25945
# Shear Modulus (GPa) = 19.94313 34.42788 27.18551
#
# Velocity S-wave (km/s) = 2.87916 3.78290 3.36154
# Velocity P-wave (km/s) = 4.42670 6.37814 5.48983
#
# Compressibility (1/GPa) = 0.04865546
#
# Stress axis : x y z
#
# Youngs Moduli (GPa) = 76.88616 58.34229 37.09011
#
# Poissons Ratio (x) = 0.13649 -0.03863
# Poissons Ratio (y) = 0.17987 0.10861
# Poissons Ratio (z) = -0.08008 0.17085
#
# Static dielectric constant tensor:
#      x y z
#    x 1.939510 0.031880 0.020250 
#    y 0.031880 1.972690 -0.026940 
#    z 0.020250 -0.026940 1.885560 
# 
# From -- ./inp_files/288633.got.cif
#   From: 2010.05.17/outbox.cif.g08.bks.cpg/sg2_145_cif.got.tgz:288633.got - 2010.06.03 11:33:40.
