data_PCOD9007788
_publ_section_title
;
Structure prediction by ZEFSAII (Michael W. Deem and Ramdas Pophale) SiO2 
 PCOD9007788
Probable space group: P -1
;
_chemical_formula_sum "Si O2"
_cell_formula_units_Z 12
_cell_length_a 20.675140
_cell_length_b 16.391643
_cell_length_c 5.093959
_cell_angle_alpha 85.944739
_cell_angle_beta 77.719130
_cell_angle_gamma 19.554363
_cell_volume 518.275375
_symmetry_space_group_name_H-M "P -1"
_symmetry_group_IT_number 2
_symmetry_cell_setting 'triclinic'
loop_
_space_group_symop_operation_xyz
x,y,z
-x,-y,-z
loop_
_atom_site_type_symbol
_atom_site_label
_atom_site_fract_x
_atom_site_fract_y
_atom_site_fract_z
Si Si1 0.965963 0.808258 0.943313
Si Si2 0.733515 0.781285 0.960010
Si Si3 0.479519 0.741821 0.595048
Si Si4 0.070965 0.865354 0.719075
Si Si5 0.407777 0.286892 0.980898
Si Si6 0.926886 0.479874 0.346986
O O1 0.961527 0.904557 0.811705
O O2 0.162300 0.575917 0.033229
O O3 0.028167 0.667713 0.703661
O O4 0.742738 0.042207 0.207683
O O5 0.864714 0.579357 0.668687
O O6 0.866593 0.710718 0.882259
O O7 0.502253 0.086098 0.002142
O O8 0.253236 0.279104 0.760209
O O9 0.673834 0.452043 0.425554
O O10 0.463733 0.824002 0.349316
O O11 0.556314 0.700485 0.796393
O O12 0.000000 0.000000 0.500000
O O13 0.000000 0.000000 0.000000
#
# Coordination Sequence:
#
# PCOD9007788 Si02
#       6
#     2   2   2   2   2   2
#     4  11  26  45  74 102 136 188 230 274 356 412
#     4  10  21  39  62  97 144 179 230 285 314 387
#     4  11  25  45  72 103 139 178 225 286 344 407
#     4  11  26  49  72 103 136 169 226 291 346 419
#     4  11  24  43  68 103 144 184 232 283 326 397
#     4  10  22  37  65  97 135 187 229 274 336 388
#
# _framework density 23.153713
#
# number of rings (size 3 to 8) (size 9 to 14) (size 15 to 20)
#    0.000    1.333    1.667    3.000    4.667   10.667 
#    0.000    0.000    0.000    0.000    0.000    0.000 
#    0.000    0.000    0.000    0.000    0.000    0.000 
#
# Total GULP energy -67299.182899 kJ/mol
# GULP energy per Si atom -5608.265242 kJ/mol
# Density = 2.310101 g / cm^3
# Si number density = 23.153713 Si / 1000 Ang^3
#
#
#
# Elastic Constant Matrix: (Units=GPa)
#
#
# Indices 1 2 3 4 5 6 
#
# 1 168.0919 43.4086 74.3281 4.5915 2.3302 20.0982
# 2 43.4086 84.7082 47.8091 9.8334 -2.8200 12.0920
# 3 74.3281 47.8091 117.4069 -5.8139 9.6928 -0.8091
# 4 4.5915 9.8334 -5.8139 51.7923 -6.0361 -7.4012
# 5 2.3302 -2.8200 9.6928 -6.0361 50.5335 3.4615
# 6 20.0982 12.0920 -0.8091 -7.4012 3.4615 40.7765
#
#
#
# Elastic Compliance Matrix: (Units=1/GPa)
#
#
# Indices 1 2 3 4 5 6 
#
# 1 0.009329 -0.000465 -0.005916 -0.002028 0.000780 -0.005012
# 2 -0.000465 0.017742 -0.007399 -0.004783 0.002287 -0.006241
# 3 -0.005916 -0.007399 0.015787 0.004263 -0.003102 0.006460
# 4 -0.002028 -0.004783 0.004263 0.021925 0.001191 0.006381
# 5 0.000780 0.002287 -0.003102 0.001191 0.020801 -0.002674
# 6 -0.005012 -0.006241 0.006460 0.006381 -0.002674 0.030358
#
#
# Mechanical properties :
#
#
# Convention : Reuss Voigt Hill
#
# Bulk Modulus (GPa) = 65.36649 77.92206 71.64428
# Shear Modulus (GPa) = 33.64694 42.26453 37.95574
#
# Velocity S-wave (km/s) = 3.81622 4.27709 4.05321
# Velocity P-wave (km/s) = 6.90731 7.62356 7.27425
#
# Compressibility (1/GPa) = 0.01529836
#
# Stress axis : x y z
#
# Youngs Moduli (GPa) = 107.19192 56.36436 63.34143
#
# Poissons Ratio (x) = 0.02619 0.37474
# Poissons Ratio (y) = 0.04981 0.46867
# Poissons Ratio (z) = 0.63417 0.41704
#
# Static dielectric constant tensor:
#      x y z
#    x 1.907640 -0.053510 -0.025650 
#    y -0.053510 1.901890 0.016780 
#    z -0.025650 0.016780 1.829960 
# 
# From -- ./inp_files/119754.got.cif
#   From: 2010.05.17/outbox.cif.g08.bks.cpg/sg2_60_cif.got.tgz:119754.got - 2010.06.03 11:33:40.
