data_PCOD9007343
_publ_section_title
;
Structure prediction by ZEFSAII (Michael W. Deem and Ramdas Pophale) SiO2 
 PCOD9007343
Probable space group: P -1
;
_chemical_formula_sum "Si O2"
_cell_formula_units_Z 15
_cell_length_a 14.407708
_cell_length_b 12.141493
_cell_length_c 8.536959
_cell_angle_alpha 110.208650
_cell_angle_beta 57.423857
_cell_angle_gamma 149.398036
_cell_volume 615.923989
_symmetry_space_group_name_H-M "P -1"
_symmetry_group_IT_number 2
_symmetry_cell_setting 'triclinic'
loop_
_space_group_symop_operation_xyz
x,y,z
-x,-y,-z
loop_
_atom_site_type_symbol
_atom_site_label
_atom_site_fract_x
_atom_site_fract_y
_atom_site_fract_z
Si Si1 0.773995 0.547520 0.730845
Si Si2 0.538903 0.969992 0.785205
Si Si3 0.987025 0.558848 0.340704
Si Si4 0.500000 0.000000 0.500000
Si Si5 0.225119 0.269722 0.453836
Si Si6 0.539963 0.739528 0.829620
Si Si7 0.866572 0.177917 0.257728
Si Si8 0.025371 0.780879 0.166246
O O1 0.724780 0.603992 0.680468
O O2 0.801306 0.450102 0.559868
O O3 0.007785 0.779909 0.704940
O O4 0.619153 0.404683 0.949198
O O5 0.793169 0.212430 0.663131
O O6 0.435242 0.939669 0.717248
O O7 0.471597 0.775794 0.785418
O O8 0.500000 0.000000 0.000000
O O9 0.980483 0.614692 0.206226
O O10 0.958984 0.395331 0.279424
O O11 0.377270 0.015318 0.590074
O O12 0.405999 0.336656 0.332612
O O13 0.166511 0.306220 0.663005
O O14 0.000000 0.000000 0.500000
O O15 0.764631 0.986208 0.818125
O O16 0.920951 0.172690 0.040083
#
# Coordination Sequence:
#
# PCOD9007343 Si02
#       8
#     2   2   2   1   2   2   2   2
#     4  11  22  38  65  95 127 167 220 261 330 390
#     4  11  23  42  66  95 136 175 217 267 329 397
#     4  10  21  39  61  88 131 173 209 256 329 391
#     4  12  26  38  62  98 134 168 228 258 328 394
#     4   9  20  42  70  90 122 172 220 267 322 394
#     4  10  21  40  71  92 126 173 214 266 330 389
#     4  12  24  36  61  93 133 166 213 271 324 386
#     4   9  21  40  63  93 128 167 218 262 323 387
#
# _framework density 24.353653000000001
#
# number of rings (size 3 to 8) (size 9 to 14) (size 15 to 20)
#    0.000    1.600    1.333    4.400    3.733    1.067 
#    0.000    3.333    2.933    0.000    0.000    0.000 
#    0.000    0.000    0.000    0.000    0.000    0.000 
#
# Total GULP energy -83719.380343 kJ/mol
# GULP energy per Si atom -5581.292023 kJ/mol
# Density = 2.429822 g / cm^3
# Si number density = 24.353653 Si / 1000 Ang^3
#
#
#
# Elastic Constant Matrix: (Units=GPa)
#
#
# Indices 1 2 3 4 5 6 
#
# 1 110.3200 9.6670 24.8054 8.3493 -6.0479 -2.0325
# 2 9.6670 46.2341 -0.4818 -10.8537 -5.8279 -0.6930
# 3 24.8054 -0.4818 111.4279 -6.3905 -7.3026 2.9495
# 4 8.3493 -10.8537 -6.3905 33.9619 2.9029 -3.7107
# 5 -6.0479 -5.8279 -7.3026 2.9029 36.8744 3.8768
# 6 -2.0325 -0.6930 2.9495 -3.7107 3.8768 33.9277
#
#
#
# Elastic Compliance Matrix: (Units=1/GPa)
#
#
# Indices 1 2 3 4 5 6 
#
# 1 0.010240 -0.002973 -0.002461 -0.003994 0.001014 0.000214
# 2 -0.002973 0.024697 0.001440 0.008734 0.002927 0.000822
# 3 -0.002461 0.001440 0.009813 0.002676 0.001648 -0.000867
# 4 -0.003994 0.008734 0.002676 0.034278 -0.001828 0.003664
# 5 0.001014 0.002927 0.001648 -0.001828 0.028585 -0.003489
# 6 0.000214 0.000822 -0.000867 0.003664 -0.003489 0.030379
#
#
# Mechanical properties :
#
#
# Convention : Reuss Voigt Hill
#
# Bulk Modulus (GPa) = 27.20222 37.32926 32.26574
# Shear Modulus (GPa) = 31.59852 36.55224 34.07538
#
# Velocity S-wave (km/s) = 3.60597 3.87834 3.74463
# Velocity P-wave (km/s) = 5.34147 5.95119 5.65455
#
# Compressibility (1/GPa) = 0.03676171
#
# Stress axis : x y z
#
# Youngs Moduli (GPa) = 97.65441 40.49003 101.90749
#
# Poissons Ratio (x) = 0.12039 0.25077
# Poissons Ratio (y) = 0.29036 -0.14671
# Poissons Ratio (z) = 0.24030 -0.05829
#
# Static dielectric constant tensor:
#      x y z
#    x 1.921020 0.128880 -0.048730 
#    y 0.128880 2.055280 0.001330 
#    z -0.048730 0.001330 1.991600 
# 
# From -- ./inp_files/307921.got.cif
#   From: 2010.05.17/outbox.cif.g08.bks.cpg/sg2_154_cif.got.tgz:307921.got - 2010.06.03 11:33:40.
