data_PCOD9007294
_publ_section_title
;
Structure prediction by ZEFSAII (Michael W. Deem and Ramdas Pophale) SiO2 
 PCOD9007294
Probable space group: P -1
;
_chemical_formula_sum "Si O2"
_cell_formula_units_Z 16
_cell_length_a 8.681509
_cell_length_b 15.547903
_cell_length_c 11.268259
_cell_angle_alpha 58.341834
_cell_angle_beta 42.023443
_cell_angle_gamma 50.180187
_cell_volume 778.460041
_symmetry_space_group_name_H-M "P -1"
_symmetry_group_IT_number 2
_symmetry_cell_setting 'triclinic'
loop_
_space_group_symop_operation_xyz
x,y,z
-x,-y,-z
loop_
_atom_site_type_symbol
_atom_site_label
_atom_site_fract_x
_atom_site_fract_y
_atom_site_fract_z
Si Si1 0.494989 0.418824 0.412482
Si Si2 0.040989 0.111119 0.137983
Si Si3 0.819501 0.907223 0.199314
Si Si4 0.104847 0.292461 0.120783
Si Si5 0.450631 0.371290 0.740313
Si Si6 0.119045 0.878445 0.292412
Si Si7 0.660859 0.851222 0.682898
Si Si8 0.442930 0.231313 0.441680
O O1 0.397406 0.407508 0.607222
O O2 0.435010 0.547463 0.329456
O O3 0.400721 0.353553 0.420691
O O4 0.806420 0.354508 0.282499
O O5 0.135622 0.196867 0.077001
O O6 0.747841 0.155178 0.315776
O O7 0.186054 0.983049 0.192559
O O8 0.055580 0.112905 0.986374
O O9 0.684630 0.825206 0.356832
O O10 0.014746 0.885673 0.212123
O O11 0.601215 0.035336 0.241198
O O12 0.273789 0.226129 0.183747
O O13 0.206960 0.375801 0.945843
O O14 0.654175 0.241917 0.724904
O O15 0.885606 0.889134 0.502704
O O16 0.657040 0.778699 0.623831
#
# Coordination Sequence:
#
# PCOD9007294 Si02
#       8
#     2   2   2   2   2   2   2   2
#     4  10  23  44  64  84 115 157 202 248 288 344
#     4  11  22  36  62  92 118 157 194 238 293 353
#     4  11  21  37  60  89 127 154 191 237 297 356
#     4  11  24  39  63  91 119 151 200 244 293 351
#     4  11  23  41  65  84 118 158 198 245 297 336
#     4  11  21  38  60  91 121 156 195 237 297 354
#     4  11  21  39  60  90 124 159 184 242 302 350
#     4  10  21  39  61  86 121 155 195 239 293 347
#
# _framework density 20.5534
#
# number of rings (size 3 to 8) (size 9 to 14) (size 15 to 20)
#    0.000    1.250    3.750    3.000    1.750    3.500 
#    0.000    3.125    2.750    0.000    0.000    0.000 
#    0.000    0.000    0.000    0.000    0.000    0.000 
#
# Total GULP energy -89478.687373 kJ/mol
# GULP energy per Si atom -5592.417961 kJ/mol
# Density = 2.050662 g / cm^3
# Si number density = 20.553400 Si / 1000 Ang^3
#
#
#
# Elastic Constant Matrix: (Units=GPa)
#
#
# Indices 1 2 3 4 5 6 
#
# 1 14.9978 -0.1441 22.1957 -8.5006 1.0727 5.3246
# 2 -0.1441 59.1785 21.9109 -15.9238 5.8336 16.8778
# 3 22.1957 21.9109 107.5175 -31.8958 2.3046 17.0466
# 4 -8.5006 -15.9238 -31.8958 22.2088 -0.7980 -2.2919
# 5 1.0727 5.8336 2.3046 -0.7980 19.3647 0.2038
# 6 5.3246 16.8778 17.0466 -2.2919 0.2038 29.0164
#
#
#
# Elastic Compliance Matrix: (Units=1/GPa)
#
#
# Indices 1 2 3 4 5 6 
#
# 1 0.119577 0.024521 -0.013177 0.041457 -0.010470 -0.025116
# 2 0.024521 0.032072 0.001489 0.031961 -0.009655 -0.021438
# 3 -0.013177 0.001489 0.020259 0.024213 -0.001043 -0.008430
# 4 0.041457 0.031961 0.024213 0.115008 -0.009738 -0.031270
# 5 -0.010470 -0.009655 -0.001043 -0.009738 0.054778 0.006996
# 6 -0.025116 -0.021438 -0.008430 -0.031270 0.006996 0.053975
#
#
# Mechanical properties :
#
#
# Convention : Reuss Voigt Hill
#
# Bulk Modulus (GPa) = 5.06140 29.95766 17.50953
# Shear Modulus (GPa) = 11.47152 23.30007 17.38579
#
# Velocity S-wave (km/s) = 2.36505 3.37060 2.91156
# Velocity P-wave (km/s) = 3.15053 5.45483 4.45426
#
# Compressibility (1/GPa) = 0.19757368
#
# Stress axis : x y z
#
# Youngs Moduli (GPa) = 8.36283 31.17970 49.35969
#
# Poissons Ratio (x) = -0.76455 0.65042
# Poissons Ratio (y) = -0.20506 -0.07351
# Poissons Ratio (z) = 0.11020 -0.04643
#
# Static dielectric constant tensor:
#      x y z
#    x 1.716500 0.013870 -0.027860 
#    y 0.013870 1.735690 0.014350 
#    z -0.027860 0.014350 1.743800 
# 
# From -- ./inp_files/209021.got.cif
#   From: 2010.05.17/outbox.cif.g08.bks.cpg/sg2_105_cif.got.tgz:209021.got - 2010.06.03 11:33:40.
