data_PCOD9007518
_publ_section_title
;
Structure prediction by ZEFSAII (Michael W. Deem and Ramdas Pophale) SiO2 
 PCOD9007518
Probable space group: P -1
;
_chemical_formula_sum "Si O2"
_cell_formula_units_Z 14
_cell_length_a 11.218899
_cell_length_b 14.686604
_cell_length_c 14.482825
_cell_angle_alpha 29.568636
_cell_angle_beta 139.102721
_cell_angle_gamma 150.148229
_cell_volume 586.127036
_symmetry_space_group_name_H-M "P -1"
_symmetry_group_IT_number 2
_symmetry_cell_setting 'triclinic'
loop_
_space_group_symop_operation_xyz
x,y,z
-x,-y,-z
loop_
_atom_site_type_symbol
_atom_site_label
_atom_site_fract_x
_atom_site_fract_y
_atom_site_fract_z
Si Si1 0.597760 0.394133 0.594068
Si Si2 0.797442 0.420255 0.024458
Si Si3 0.539406 0.634946 0.658898
Si Si4 0.061026 0.112694 0.834234
Si Si5 0.561845 0.750991 0.772107
Si Si6 0.929556 0.426866 0.304930
Si Si7 0.672364 0.062139 0.897815
O O1 0.500000 0.500000 0.500000
O O2 0.452557 0.282044 0.512408
O O3 0.594554 0.179172 0.818138
O O4 0.883434 0.618158 0.549752
O O5 0.897431 0.472087 0.140281
O O6 0.558072 0.139414 0.119631
O O7 0.702290 0.560655 0.822987
O O8 0.000000 0.500000 0.000000
O O9 0.259033 0.398559 0.712924
O O10 0.605709 0.781364 0.661601
O O11 0.801674 0.978353 0.759894
O O12 0.203818 0.053009 0.907804
O O13 0.000000 0.000000 0.000000
O O14 0.334938 0.730697 0.674639
O O15 0.500000 0.500000 0.000000
O O16 0.097762 0.680319 0.237704
#
# Coordination Sequence:
#
# PCOD9007518 Si02
#       7
#     2   2   2   2   2   2   2
#     4  10  23  47  60  85 130 171 205 259 312 369
#     4  11  21  38  64  94 116 159 218 256 299 375
#     4  11  23  39  64  90 126 162 208 257 312 365
#     4  11  19  37  65  95 126 160 201 259 310 371
#     4  12  18  37  62  94 123 156 204 259 306 370
#     4  10  21  39  62  85 127 160 201 253 310 364
#     4   9  21  39  62  86 123 167 197 250 326 352
#
# _framework density 23.885605999999999
#
# number of rings (size 3 to 8) (size 9 to 14) (size 15 to 20)
#    0.857    0.571    4.286    1.714    0.000    1.143 
#    7.714    2.143    0.000    0.000    0.000    0.000 
#    0.000    0.000    0.000    0.000    0.000    0.000 
#
# Total GULP energy -78014.483467 kJ/mol
# GULP energy per Si atom -5572.463105 kJ/mol
# Density = 2.383124 g / cm^3
# Si number density = 23.885606 Si / 1000 Ang^3
#
#
#
# Elastic Constant Matrix: (Units=GPa)
#
#
# Indices 1 2 3 4 5 6 
#
# 1 139.2375 45.9790 57.4868 28.3038 25.6829 1.8083
# 2 45.9790 119.9654 29.7021 45.6702 11.0150 5.4136
# 3 57.4868 29.7021 91.4424 31.3421 13.4256 -2.6927
# 4 28.3038 45.6702 31.3421 39.9365 7.7239 11.8749
# 5 25.6829 11.0150 13.4256 7.7239 40.2139 1.9029
# 6 1.8083 5.4136 -2.6927 11.8749 1.9029 16.1328
#
#
#
# Elastic Compliance Matrix: (Units=1/GPa)
#
#
# Indices 1 2 3 4 5 6 
#
# 1 0.011156 -0.002860 -0.005981 0.001486 -0.004542 -0.001847
# 2 -0.002860 0.017802 0.006033 -0.027659 -0.000498 0.015772
# 3 -0.005981 0.006033 0.022866 -0.027046 -0.001338 0.022528
# 4 0.001486 -0.027659 -0.027046 0.096569 0.000255 -0.066512
# 5 -0.004542 -0.000498 -0.001338 0.000255 0.028448 -0.003091
# 6 -0.001847 0.015772 0.022528 -0.066512 -0.003091 0.109982
#
#
# Mechanical properties :
#
#
# Convention : Reuss Voigt Hill
#
# Bulk Modulus (GPa) = 21.64138 68.55344 45.09741
# Shear Modulus (GPa) = 16.24214 33.75511 24.99862
#
# Velocity S-wave (km/s) = 2.61050 3.76333 3.23863
# Velocity P-wave (km/s) = 4.26221 6.90265 5.73642
#
# Compressibility (1/GPa) = 0.04620778
#
# Stress axis : x y z
#
# Youngs Moduli (GPa) = 89.64143 56.17441 43.73317
#
# Poissons Ratio (x) = 0.16066 0.26157
# Poissons Ratio (y) = 0.25638 -0.26386
# Poissons Ratio (z) = 0.53614 -0.33892
#
# Static dielectric constant tensor:
#      x y z
#    x 1.983940 -0.034290 -0.013870 
#    y -0.034290 1.942070 -0.101280 
#    z -0.013870 -0.101280 2.111950 
# 
# From -- ./inp_files/521478.got.cif
#   From: 2010.05.17/outbox.cif.g08.bks.cpg/sg2_261_cif.got.tgz:521478.got - 2010.06.03 11:33:40.
