data_PCOD9007043
_publ_section_title
;
Structure prediction by ZEFSAII (Michael W. Deem and Ramdas Pophale) SiO2 
 PCOD9007043
Probable space group: P -1
;
_chemical_formula_sum "Si O2"
_cell_formula_units_Z 12
_cell_length_a 9.718809
_cell_length_b 15.816835
_cell_length_c 28.895373
_cell_angle_alpha 160.359046
_cell_angle_beta 29.438850
_cell_angle_gamma 150.819967
_cell_volume 695.194453
_symmetry_space_group_name_H-M "P -1"
_symmetry_group_IT_number 2
_symmetry_cell_setting 'triclinic'
loop_
_space_group_symop_operation_xyz
x,y,z
-x,-y,-z
loop_
_atom_site_type_symbol
_atom_site_label
_atom_site_fract_x
_atom_site_fract_y
_atom_site_fract_z
Si Si1 0.456599 0.944661 0.927564
Si Si2 0.435418 0.270552 0.649600
Si Si3 0.057923 0.544235 0.154843
Si Si4 0.069964 0.322658 0.347126
Si Si5 0.335086 0.506830 0.896306
Si Si6 0.629222 0.766248 0.162462
O O1 0.720946 0.841419 0.780660
O O2 0.155732 0.709571 0.886733
O O3 0.500000 0.000000 0.000000
O O4 0.474031 0.198075 0.022841
O O5 0.726929 0.482126 0.650475
O O6 0.350160 0.347206 0.764005
O O7 0.155485 0.286394 0.709452
O O8 0.500000 0.000000 0.500000
O O9 0.341248 0.709788 0.185938
O O10 0.170196 0.396144 0.003684
O O11 0.000000 0.500000 0.500000
O O12 0.796903 0.081395 0.282231
O O13 0.445012 0.374105 0.838522
O O14 0.000000 0.500000 0.000000
#
# Coordination Sequence:
#
# PCOD9007043 Si02
#       6
#     2   2   2   2   2   2
#     4  11  18  38  59  83 117 153 199 236 287 349
#     4  11  22  38  60  86 116 158 202 238 287 355
#     4  10  21  39  59  88 122 154 188 251 301 337
#     4  11  21  37  58  87 116 159 195 238 293 351
#     4  12  19  34  62  89 113 151 207 237 274 362
#     4  11  21  36  62  91 119 149 197 247 300 338
#
# _framework density 17.261358000000001
#
# number of rings (size 3 to 8) (size 9 to 14) (size 15 to 20)
#    0.000    1.000    8.333    1.000    0.000    0.667 
#    0.000    8.333    0.000    0.000    0.000    0.000 
#    0.000    0.000    0.000    0.000    0.000    0.000 
#
# Total GULP energy -66846.298501 kJ/mol
# GULP energy per Si atom -5570.524875 kJ/mol
# Density = 1.722207 g / cm^3
# Si number density = 17.261358 Si / 1000 Ang^3
#
#
#
# Elastic Constant Matrix: (Units=GPa)
#
#
# Indices 1 2 3 4 5 6 
#
# 1 87.8004 66.7006 52.0695 9.4688 -0.7296 -3.1035
# 2 66.7006 109.4637 57.1131 12.9365 -1.5997 10.0826
# 3 52.0695 57.1131 126.2189 2.8594 -2.8807 4.8576
# 4 9.4688 12.9365 2.8594 32.7131 -10.9767 2.7981
# 5 -0.7296 -1.5997 -2.8807 -10.9767 30.1095 5.4378
# 6 -3.1035 10.0826 4.8576 2.7981 5.4378 28.7818
#
#
#
# Elastic Compliance Matrix: (Units=1/GPa)
#
#
# Indices 1 2 3 4 5 6 
#
# 1 0.024811 -0.013179 -0.004620 -0.003500 -0.003454 0.009065
# 2 -0.013179 0.019885 -0.003181 -0.002845 0.000790 -0.007723
# 3 -0.004620 -0.003181 0.011333 0.002455 0.002046 -0.001922
# 4 -0.003500 -0.002845 0.002455 0.038075 0.015024 -0.006335
# 5 -0.003454 0.000790 0.002046 0.015024 0.040675 -0.010140
# 6 0.009065 -0.007723 -0.001922 -0.006335 -0.010140 0.041283
#
#
# Mechanical properties :
#
#
# Convention : Reuss Voigt Hill
#
# Bulk Modulus (GPa) = 71.08514 75.02771 73.05643
# Shear Modulus (GPa) = 22.45044 28.16085 25.30565
#
# Velocity S-wave (km/s) = 3.61032 4.04349 3.83303
# Velocity P-wave (km/s) = 7.65835 8.08454 7.87433
#
# Compressibility (1/GPa) = 0.01406764
#
# Stress axis : x y z
#
# Youngs Moduli (GPa) = 40.30510 50.28880 88.23653
#
# Poissons Ratio (x) = 0.66278 0.40766
# Poissons Ratio (y) = 0.53120 0.28070
# Poissons Ratio (z) = 0.18621 0.15998
#
# Static dielectric constant tensor:
#      x y z
#    x 1.648100 0.042890 0.058750 
#    y 0.042890 1.617220 -0.015680 
#    z 0.058750 -0.015680 1.562660 
# 
# From -- ./inp_files/145265.got.cif
#   From: 2010.05.17/outbox.cif.g08.bks.cpg/sg2_73_cif.got.tgz:145265.got - 2010.06.03 11:33:40.
