data_PCOD9007622
_publ_section_title
;
Structure prediction by ZEFSAII (Michael W. Deem and Ramdas Pophale) SiO2 
 PCOD9007622
Probable space group: P -1
;
_chemical_formula_sum "Si O2"
_cell_formula_units_Z 16
_cell_length_a 8.975276
_cell_length_b 19.531933
_cell_length_c 5.445431
_cell_angle_alpha 81.312610
_cell_angle_beta 124.234899
_cell_angle_gamma 123.008534
_cell_volume 644.976769
_symmetry_space_group_name_H-M "P -1"
_symmetry_group_IT_number 2
_symmetry_cell_setting 'triclinic'
loop_
_space_group_symop_operation_xyz
x,y,z
-x,-y,-z
loop_
_atom_site_type_symbol
_atom_site_label
_atom_site_fract_x
_atom_site_fract_y
_atom_site_fract_z
Si Si1 0.577660 0.142526 0.524035
Si Si2 0.397730 0.208441 0.931999
Si Si3 0.216010 0.686212 0.059000
Si Si4 0.987103 0.840227 0.065797
Si Si5 0.752173 0.536062 0.160894
Si Si6 0.703012 0.445784 0.650612
Si Si7 0.155192 0.066856 0.405592
Si Si8 0.819551 0.667683 0.813568
O O1 0.685296 0.227539 0.741789
O O2 0.361158 0.067061 0.500931
O O3 0.770602 0.130853 0.651690
O O4 0.476713 0.159121 0.186846
O O5 0.619359 0.294129 0.021460
O O6 0.210976 0.208790 0.899303
O O7 0.280126 0.155637 0.611304
O O8 0.226548 0.618647 0.258764
O O9 0.977029 0.660379 0.779491
O O10 0.977642 0.918413 0.929820
O O11 0.909227 0.764648 0.844193
O O12 0.762088 0.492901 0.941888
O O13 0.858638 0.632451 0.122246
O O14 0.500000 0.500000 0.000000
O O15 0.804654 0.504469 0.472566
O O16 0.437800 0.390851 0.433684
O O17 0.000000 0.000000 0.500000
#
# Coordination Sequence:
#
# PCOD9007622 Si02
#       8
#     2   2   2   2   2   2   2   2
#     4   9  21  40  58  94 126 157 215 259 309 379
#     4  10  21  39  62  90 120 162 207 260 313 377
#     4  10  23  38  62  90 120 165 211 263 315 382
#     4  10  22  40  64  92 121 164 208 260 317 379
#     4  10  23  41  62  90 128 172 217 274 330 391
#     4  11  23  42  63  89 131 171 218 274 335 382
#     4  10  22  41  63  90 130 163 198 252 314 383
#     4  10  21  42  60  88 121 163 212 263 320 384
#
# _framework density 24.807096000000001
#
# number of rings (size 3 to 8) (size 9 to 14) (size 15 to 20)
#    0.000    2.000    0.000    3.750    5.250    7.500 
#   11.250    1.250    0.000    0.000    0.000    0.000 
#    0.000    0.000    0.000    0.000    0.000    0.000 
#
# Total GULP energy -89342.256140 kJ/mol
# GULP energy per Si atom -5583.891009 kJ/mol
# Density = 2.475063 g / cm^3
# Si number density = 24.807096 Si / 1000 Ang^3
#
#
#
# Elastic Constant Matrix: (Units=GPa)
#
#
# Indices 1 2 3 4 5 6 
#
# 1 167.9249 43.9640 60.1159 -10.6512 52.4515 15.9116
# 2 43.9640 85.1450 8.4578 -8.8531 17.6148 12.6737
# 3 60.1159 8.4578 72.0097 -3.2426 19.8336 3.7713
# 4 -10.6512 -8.8531 -3.2426 28.0962 0.2066 -2.8441
# 5 52.4515 17.6148 19.8336 0.2066 46.4562 4.4679
# 6 15.9116 12.6737 3.7713 -2.8441 4.4679 40.6512
#
#
#
# Elastic Compliance Matrix: (Units=1/GPa)
#
#
# Indices 1 2 3 4 5 6 
#
# 1 0.013014 -0.003284 -0.007465 0.002902 -0.010076 -0.002067
# 2 -0.003284 0.014512 0.001994 0.003278 -0.002378 -0.002933
# 3 -0.007465 0.001994 0.020133 0.000185 -0.000977 0.000553
# 4 0.002902 0.003278 0.000185 0.037885 -0.004864 0.001010
# 5 -0.010076 -0.002378 -0.000977 -0.004864 0.034177 0.000679
# 6 -0.002067 -0.002933 0.000553 0.001010 0.000679 0.026268
#
#
# Mechanical properties :
#
#
# Convention : Reuss Voigt Hill
#
# Bulk Modulus (GPa) = 33.16965 61.12832 47.14899
# Shear Modulus (GPa) = 28.81017 37.21017 33.01017
#
# Velocity S-wave (km/s) = 3.41158 3.87716 3.65180
# Velocity P-wave (km/s) = 5.37760 6.68866 6.06864
#
# Compressibility (1/GPa) = 0.03014804
#
# Stress axis : x y z
#
# Youngs Moduli (GPa) = 76.83760 68.90894 49.66873
#
# Poissons Ratio (x) = 0.22633 0.37078
# Poissons Ratio (y) = 0.25237 -0.09902
# Poissons Ratio (z) = 0.57359 -0.13738
#
# Static dielectric constant tensor:
#      x y z
#    x 2.063740 0.026220 -0.032700 
#    y 0.026220 1.981710 -0.021290 
#    z -0.032700 -0.021290 2.033760 
# 
# From -- ./inp_files/52971.got.cif
#   From: 2010.05.17/outbox.cif.g08.bks.cpg/sg2_27_cif.got.tgz:52971.got - 2010.06.03 11:33:40.
