data_PCOD9007464
_publ_section_title
;
Structure prediction by ZEFSAII (Michael W. Deem and Ramdas Pophale) SiO2 
 PCOD9007464
Probable space group: P -1
;
_chemical_formula_sum "Si O2"
_cell_formula_units_Z 14
_cell_length_a 5.141174
_cell_length_b 19.992690
_cell_length_c 7.822728
_cell_angle_alpha 52.856877
_cell_angle_beta 119.893778
_cell_angle_gamma 110.715332
_cell_volume 554.044167
_symmetry_space_group_name_H-M "P -1"
_symmetry_group_IT_number 2
_symmetry_cell_setting 'triclinic'
loop_
_space_group_symop_operation_xyz
x,y,z
-x,-y,-z
loop_
_atom_site_type_symbol
_atom_site_label
_atom_site_fract_x
_atom_site_fract_y
_atom_site_fract_z
Si Si1 0.624362 0.010087 0.306972
Si Si2 0.836919 0.490610 0.186175
Si Si3 0.137372 0.335690 0.415788
Si Si4 0.328307 0.579537 0.387352
Si Si5 0.778022 0.090115 0.880551
Si Si6 0.683472 0.864313 0.798445
Si Si7 0.494218 0.240654 0.411425
O O1 0.601086 0.096907 0.266053
O O2 0.280840 0.966452 0.221587
O O3 0.772527 0.940538 0.574524
O O4 0.725375 0.031632 0.117693
O O5 0.790402 0.439576 0.430332
O O6 0.025010 0.429973 0.223941
O O7 0.038842 0.575005 0.177135
O O8 0.500000 0.500000 0.000000
O O9 0.415682 0.344232 0.629687
O O10 0.280922 0.299527 0.349584
O O11 0.833638 0.281233 0.445107
O O12 0.500000 0.500000 0.500000
O O13 0.528823 0.157262 0.666089
O O14 0.084387 0.141948 0.960696
O O15 0.617189 0.785811 0.774162
#
# Coordination Sequence:
#
# PCOD9007464 Si02
#       7
#     2   2   2   2   2   2   2
#     4   9  20  38  64  94 120 164 230 289 325 372
#     4  10  21  43  74 105 126 168 226 277 318 386
#     4  11  23  47  65  96 139 182 209 273 332 393
#     4   9  20  41  70  96 132 164 216 269 324 373
#     4  10  21  39  63  92 122 174 225 275 332 391
#     4  10  21  39  61  95 125 170 223 282 328 385
#     4  11  26  42  64  90 142 178 218 261 335 410
#
# _framework density 25.268743000000001
#
# number of rings (size 3 to 8) (size 9 to 14) (size 15 to 20)
#    0.000    2.000    1.429    0.857    4.000    2.286 
#    7.714    4.286    0.000    0.000    0.000    0.000 
#    0.000    0.000    0.000    0.000    0.000    0.000 
#
# Total GULP energy -78143.197490 kJ/mol
# GULP energy per Si atom -5581.656964 kJ/mol
# Density = 2.521123 g / cm^3
# Si number density = 25.268743 Si / 1000 Ang^3
#
#
#
# Elastic Constant Matrix: (Units=GPa)
#
#
# Indices 1 2 3 4 5 6 
#
# 1 121.2092 55.8775 25.6585 9.5490 18.8112 -23.7578
# 2 55.8775 151.2451 44.2199 35.7176 16.3219 -26.4630
# 3 25.6585 44.2199 123.7414 30.3439 21.9462 -10.0756
# 4 9.5490 35.7176 30.3439 37.0481 8.0857 -2.0035
# 5 18.8112 16.3219 21.9462 8.0857 34.3476 0.2442
# 6 -23.7578 -26.4630 -10.0756 -2.0035 0.2442 48.6001
#
#
#
# Elastic Compliance Matrix: (Units=1/GPa)
#
#
# Indices 1 2 3 4 5 6 
#
# 1 0.011169 -0.003285 -0.000471 0.001905 -0.004729 0.003676
# 2 -0.003285 0.010817 -0.000571 -0.008699 -0.000955 0.003812
# 3 -0.000471 -0.000571 0.011170 -0.007327 -0.004893 0.001497
# 4 0.001905 -0.008699 -0.007327 0.041103 -0.001878 -0.003621
# 5 -0.004729 -0.000955 -0.004893 -0.001878 0.035756 -0.004104
# 6 0.003676 0.003812 0.001497 -0.003621 -0.004104 0.024630
#
#
# Mechanical properties :
#
#
# Convention : Reuss Voigt Hill
#
# Bulk Modulus (GPa) = 40.81539 71.96749 56.39144
# Shear Modulus (GPa) = 33.01075 42.02847 37.51961
#
# Velocity S-wave (km/s) = 3.61832 4.08273 3.85752
# Velocity P-wave (km/s) = 5.80034 7.12514 6.49659
#
# Compressibility (1/GPa) = 0.02450056
#
# Stress axis : x y z
#
# Youngs Moduli (GPa) = 89.53665 92.44864 89.52765
#
# Poissons Ratio (x) = 0.30368 0.04217
# Poissons Ratio (y) = 0.29412 0.05115
# Poissons Ratio (z) = 0.04218 0.05282
#
# Static dielectric constant tensor:
#      x y z
#    x 2.145760 0.123420 0.054810 
#    y 0.123420 2.096390 0.007940 
#    z 0.054810 0.007940 2.029490 
# 
# From -- ./inp_files/141315.got.cif
#   From: 2010.05.17/outbox.cif.g08.bks.cpg/sg2_71_cif.got.tgz:141315.got - 2010.06.03 11:33:40.
