data_PCOD9007802
_publ_section_title
;
Structure prediction by ZEFSAII (Michael W. Deem and Ramdas Pophale) SiO2 
 PCOD9007802
Probable space group: P -1
;
_chemical_formula_sum "Si O2"
_cell_formula_units_Z 16
_cell_length_a 7.947537
_cell_length_b 13.520116
_cell_length_c 11.001590
_cell_angle_alpha 52.831512
_cell_angle_beta 122.526014
_cell_angle_gamma 129.452839
_cell_volume 704.283444
_symmetry_space_group_name_H-M "P -1"
_symmetry_group_IT_number 2
_symmetry_cell_setting 'triclinic'
loop_
_space_group_symop_operation_xyz
x,y,z
-x,-y,-z
loop_
_atom_site_type_symbol
_atom_site_label
_atom_site_fract_x
_atom_site_fract_y
_atom_site_fract_z
Si Si1 0.825536 0.353532 0.987657
Si Si2 0.928686 0.648565 0.275459
Si Si3 0.778113 0.161940 0.313048
Si Si4 0.388035 0.081456 0.745870
Si Si5 0.267196 0.678897 0.592469
Si Si6 0.505331 0.438154 0.677966
Si Si7 0.134542 0.855039 0.001626
Si Si8 0.293513 0.258261 0.401777
O O1 0.650568 0.359465 0.819661
O O2 0.944370 0.274527 0.025048
O O3 0.706428 0.254906 0.128570
O O4 0.000000 0.500000 0.000000
O O5 0.839506 0.491205 0.297261
O O6 0.741463 0.635501 0.308744
O O7 0.150236 0.678349 0.418069
O O8 0.971512 0.778781 0.107694
O O9 0.783547 0.228270 0.397676
O O10 0.025848 0.180230 0.363073
O O11 0.630216 0.006257 0.320276
O O12 0.621758 0.111378 0.874864
O O13 0.365221 0.213666 0.590054
O O14 0.193268 0.988872 0.837939
O O15 0.537299 0.749784 0.626794
O O16 0.500000 0.500000 0.500000
O O17 0.642191 0.580192 0.701574
#
# Coordination Sequence:
#
# PCOD9007802 Si02
#       8
#     2   2   2   2   2   2   2   2
#     4  11  22  40  65  99 131 165 213 271 337 383
#     4  10  21  39  63 100 130 165 217 272 339 387
#     4  11  23  41  64  92 133 176 219 267 328 385
#     4  10  22  40  65  88 126 182 224 257 320 389
#     4  10  22  38  66  99 133 164 216 286 325 392
#     4  11  23  38  69  99 131 168 211 271 339 399
#     4  10  21  41  66  88 131 174 214 272 319 390
#     4  11  21  40  63  97 127 173 220 261 335 388
#
# _framework density 22.718126000000002
#
# number of rings (size 3 to 8) (size 9 to 14) (size 15 to 20)
#    0.000    1.500    2.500    2.625    3.500    0.500 
#    4.500    1.875    2.750    3.750    0.000    0.000 
#    0.000    0.000    0.000    0.000    0.000    0.000 
#
# Total GULP energy -89120.076873 kJ/mol
# GULP energy per Si atom -5570.004805 kJ/mol
# Density = 2.266642 g / cm^3
# Si number density = 22.718126 Si / 1000 Ang^3
#
#
#
# Elastic Constant Matrix: (Units=GPa)
#
#
# Indices 1 2 3 4 5 6 
#
# 1 84.8380 35.9226 30.3975 0.9822 -12.9656 7.7057
# 2 35.9226 78.2896 1.7450 6.1637 -4.8932 -5.5290
# 3 30.3975 1.7450 93.0413 -5.7004 -7.6650 6.7287
# 4 0.9822 6.1637 -5.7004 41.1891 7.5851 -10.0433
# 5 -12.9656 -4.8932 -7.6650 7.5851 33.9334 -2.4538
# 6 7.7057 -5.5290 6.7287 -10.0433 -2.4538 18.5669
#
#
#
# Elastic Compliance Matrix: (Units=1/GPa)
#
#
# Indices 1 2 3 4 5 6 
#
# 1 0.018969 -0.008726 -0.005128 -0.003098 0.004826 -0.009651
# 2 -0.008726 0.017328 0.001954 -0.000209 0.000231 0.007991
# 3 -0.005128 0.001954 0.012607 0.001146 0.000832 -0.001129
# 4 -0.003098 -0.000209 0.001146 0.029622 -0.006421 0.015983
# 5 0.004826 0.000231 0.000832 -0.006421 0.032871 -0.001365
# 6 -0.009651 0.007991 -0.001129 0.015983 -0.001365 0.069118
#
#
# Mechanical properties :
#
#
# Convention : Reuss Voigt Hill
#
# Bulk Modulus (GPa) = 39.83197 43.58878 41.71038
# Shear Modulus (GPa) = 23.50912 31.27813 27.39363
#
# Velocity S-wave (km/s) = 3.22035 3.71454 3.47624
# Velocity P-wave (km/s) = 5.60346 6.13396 5.87470
#
# Compressibility (1/GPa) = 0.02510546
#
# Stress axis : x y z
#
# Youngs Moduli (GPa) = 52.71717 57.70881 79.32055
#
# Poissons Ratio (x) = 0.50354 0.40676
# Poissons Ratio (y) = 0.45999 -0.15500
# Poissons Ratio (z) = 0.27034 -0.11277
#
# Static dielectric constant tensor:
#      x y z
#    x 2.240810 -0.283320 0.107350 
#    y -0.283320 2.132330 -0.102870 
#    z 0.107350 -0.102870 1.955430 
# 
# From -- ./inp_files/268824.got.cif
#   From: 2010.05.17/outbox.cif.g08.bks.cpg/sg2_135_cif.got.tgz:268824.got - 2010.06.03 11:33:40.
