data_PCOD9007230
_publ_section_title
;
Structure prediction by ZEFSAII (Michael W. Deem and Ramdas Pophale) SiO2 
 PCOD9007230
Probable space group: P -1
;
_chemical_formula_sum "Si O2"
_cell_formula_units_Z 14
_cell_length_a 5.966523
_cell_length_b 11.205702
_cell_length_c 12.958415
_cell_angle_alpha 63.849872
_cell_angle_beta 59.133724
_cell_angle_gamma 59.996061
_cell_volume 623.937961
_symmetry_space_group_name_H-M "P -1"
_symmetry_group_IT_number 2
_symmetry_cell_setting 'triclinic'
loop_
_space_group_symop_operation_xyz
x,y,z
-x,-y,-z
loop_
_atom_site_type_symbol
_atom_site_label
_atom_site_fract_x
_atom_site_fract_y
_atom_site_fract_z
Si Si1 0.694892 0.806351 0.193747
Si Si2 0.708068 0.443766 0.667763
Si Si3 0.867569 0.665890 0.671891
Si Si4 0.632830 0.103903 0.377339
Si Si5 0.090732 0.880540 0.225239
Si Si6 0.582304 0.306741 0.506668
Si Si7 0.881288 0.531044 0.129432
O O1 0.413299 0.878177 0.161058
O O2 0.565590 0.744123 0.345315
O O3 0.888822 0.672915 0.130458
O O4 0.891351 0.887192 0.167304
O O5 0.856894 0.534030 0.658015
O O6 0.881487 0.277754 0.682235
O O7 0.584912 0.535106 0.559425
O O8 0.442876 0.449778 0.796822
O O9 0.575906 0.793803 0.694908
O O10 0.096819 0.713899 0.543702
O O11 0.966029 0.604229 0.783974
O O12 0.623077 0.207984 0.433853
O O13 0.500000 0.000000 0.500000
O O14 0.915821 0.007669 0.293189
O O15 0.000000 0.500000 0.000000
#
# Coordination Sequence:
#
# PCOD9007230 Si02
#       7
#     2   2   2   2   2   2   2
#     4  11  23  39  60  94 126 164 213 260 315 379
#     4   9  21  40  60  94 122 163 209 265 322 382
#     4  10  21  39  60  92 129 167 209 260 316 383
#     4  11  22  35  58  92 132 175 205 248 313 394
#     4  11  23  38  58  90 129 169 209 251 314 378
#     4  10  22  36  60  91 132 168 205 256 321 382
#     4  10  22  42  66  91 120 164 219 276 321 366
#
# _framework density 22.438130000000001
#
# number of rings (size 3 to 8) (size 9 to 14) (size 15 to 20)
#    0.000    1.714    2.857    0.857    4.000    8.571 
#    0.000    0.000    0.000    4.286    0.000    0.000 
#    0.000    0.000    0.000    0.000    0.000    0.000 
#
# Total GULP energy -78103.948362 kJ/mol
# GULP energy per Si atom -5578.853454 kJ/mol
# Density = 2.238706 g / cm^3
# Si number density = 22.438130 Si / 1000 Ang^3
#
#
#
# Elastic Constant Matrix: (Units=GPa)
#
#
# Indices 1 2 3 4 5 6 
#
# 1 118.8015 16.1534 29.4066 5.6758 9.1466 -7.9962
# 2 16.1534 104.7089 22.1752 32.2996 -0.6967 -28.7089
# 3 29.4066 22.1752 107.1366 29.5563 16.8967 -6.3502
# 4 5.6758 32.2996 29.5563 22.6338 5.2867 -5.0469
# 5 9.1466 -0.6967 16.8967 5.2867 10.7203 5.0429
# 6 -7.9962 -28.7089 -6.3502 -5.0469 5.0429 24.4531
#
#
#
# Elastic Compliance Matrix: (Units=1/GPa)
#
#
# Indices 1 2 3 4 5 6 
#
# 1 0.009998 -0.002375 -0.002468 0.007172 -0.009914 0.003364
# 2 -0.002375 0.030814 0.009565 -0.049897 0.000647 0.027452
# 3 -0.002468 0.009565 0.021150 -0.032812 -0.020739 0.013419
# 4 0.007172 -0.049897 -0.032812 0.154883 -0.020598 -0.028542
# 5 -0.009914 0.000647 -0.020739 -0.020598 0.166479 -0.046452
# 6 0.003364 0.027452 0.013419 -0.028542 -0.046452 0.081398
#
#
# Mechanical properties :
#
#
# Convention : Reuss Voigt Hill
#
# Bulk Modulus (GPa) = 14.00478 51.79083 32.89780
# Shear Modulus (GPa) = 10.43661 29.08890 19.76276
#
# Velocity S-wave (km/s) = 2.15902 3.60447 2.97099
# Velocity P-wave (km/s) = 3.53132 6.36040 5.14417
#
# Compressibility (1/GPa) = 0.07140421
#
# Stress axis : x y z
#
# Youngs Moduli (GPa) = 100.01560 32.45279 47.28152
#
# Poissons Ratio (x) = 0.07709 0.11670
# Poissons Ratio (y) = 0.23759 -0.45222
# Poissons Ratio (z) = 0.24685 -0.31040
#
# Static dielectric constant tensor:
#      x y z
#    x 1.811110 -0.148060 -0.084980 
#    y -0.148060 1.707520 -0.109440 
#    z -0.084980 -0.109440 1.718910 
# 
# From -- ./inp_files/65776.got.cif
#   From: 2010.05.17/outbox.cif.g08.bks.cpg/sg2_33_cif.got.tgz:65776.got - 2010.06.03 11:33:40.
