data_PCOD9007892
_publ_section_title
;
Structure prediction by ZEFSAII (Michael W. Deem and Ramdas Pophale) SiO2 
 PCOD9007892
Probable space group: P -1
;
_chemical_formula_sum "Si O2"
_cell_formula_units_Z 16
_cell_length_a 8.996802
_cell_length_b 8.601361
_cell_length_c 14.426195
_cell_angle_alpha 135.890894
_cell_angle_beta 71.327655
_cell_angle_gamma 86.432683
_cell_volume 659.957123
_symmetry_space_group_name_H-M "P -1"
_symmetry_group_IT_number 2
_symmetry_cell_setting 'triclinic'
loop_
_space_group_symop_operation_xyz
x,y,z
-x,-y,-z
loop_
_atom_site_type_symbol
_atom_site_label
_atom_site_fract_x
_atom_site_fract_y
_atom_site_fract_z
Si Si1 0.311239 0.187407 0.155188
Si Si2 0.542733 0.653724 0.647432
Si Si3 0.343647 0.401326 0.860857
Si Si4 0.815926 0.929311 0.181671
Si Si5 0.684737 0.964386 0.632194
Si Si6 0.125819 0.940568 0.217810
Si Si7 0.362203 0.360533 0.625555
Si Si8 0.015648 0.259597 0.109525
O O1 0.356574 0.371133 0.286489
O O2 0.174434 0.276581 0.137825
O O3 0.227919 0.053514 0.181641
O O4 0.500000 0.000000 0.000000
O O5 0.655675 0.749007 0.600805
O O6 0.499566 0.416385 0.559289
O O7 0.344726 0.879257 0.768172
O O8 0.257905 0.210346 0.795981
O O9 0.375243 0.437696 0.762221
O O10 0.530079 0.236765 0.801150
O O11 0.228234 0.646991 0.047546
O O12 0.928430 0.038819 0.262123
O O13 0.951071 0.718509 0.995631
O O14 0.644821 0.899030 0.508369
O O15 0.853528 0.979783 0.647562
O O16 0.160946 0.550226 0.727046
O O17 0.000000 0.000000 0.000000
#
# Coordination Sequence:
#
# PCOD9007892 Si02
#       8
#     2   2   2   2   2   2   2   2
#     4  11  19  33  60  97 121 144 200 259 294 348
#     4  10  21  39  63  90 122 157 199 250 301 358
#     4  11  23  40  64  85 119 167 205 246 295 357
#     4  11  21  39  62  92 120 157 205 250 298 353
#     4  10  25  41  60  91 125 158 201 250 304 356
#     4  11  21  39  62  90 121 158 202 252 299 350
#     4  12  22  42  64  88 124 164 198 245 305 362
#     4  12  20  36  63  93 122 156 200 251 301 353
#
# _framework density 24.243998000000001
#
# number of rings (size 3 to 8) (size 9 to 14) (size 15 to 20)
#    0.000    1.000    5.000    2.250    0.000    0.000 
#    2.250    8.750    0.000    0.000    0.000    0.000 
#    0.000    0.000    0.000    0.000    0.000    0.000 
#
# Total GULP energy -89203.911604 kJ/mol
# GULP energy per Si atom -5575.244475 kJ/mol
# Density = 2.418882 g / cm^3
# Si number density = 24.243998 Si / 1000 Ang^3
#
#
#
# Elastic Constant Matrix: (Units=GPa)
#
#
# Indices 1 2 3 4 5 6 
#
# 1 166.1576 16.3345 29.8638 -0.0683 38.6167 -3.4607
# 2 16.3345 42.7105 -7.1176 -6.1137 8.6479 7.4417
# 3 29.8638 -7.1176 72.7507 5.2598 21.4283 -10.2800
# 4 -0.0683 -6.1137 5.2598 27.4651 3.1849 2.7994
# 5 38.6167 8.6479 21.4283 3.1849 50.4227 -12.1750
# 6 -3.4607 7.4417 -10.2800 2.7994 -12.1750 26.0854
#
#
#
# Elastic Compliance Matrix: (Units=1/GPa)
#
#
# Indices 1 2 3 4 5 6 
#
# 1 0.007756 -0.001841 -0.002146 0.000807 -0.005199 -0.001805
# 2 -0.001841 0.029871 0.003974 0.008156 -0.008866 -0.012213
# 3 -0.002146 0.003974 0.017211 -0.002089 -0.005490 0.003026
# 4 0.000807 0.008156 -0.002089 0.040386 -0.006155 -0.010250
# 5 -0.005199 -0.008866 -0.005490 -0.006155 0.031711 0.015138
# 6 -0.001805 -0.012213 0.003026 -0.010250 0.015138 0.050938
#
#
# Mechanical properties :
#
#
# Convention : Reuss Voigt Hill
#
# Bulk Modulus (GPa) = 18.24439 39.97558 29.10999
# Shear Modulus (GPa) = 25.48813 36.96385 31.22599
#
# Velocity S-wave (km/s) = 3.24592 3.90893 3.59275
# Velocity P-wave (km/s) = 4.64647 6.07434 5.40774
#
# Compressibility (1/GPa) = 0.05481136
#
# Stress axis : x y z
#
# Youngs Moduli (GPa) = 128.92971 33.47784 58.10285
#
# Poissons Ratio (x) = 0.06164 0.12469
# Poissons Ratio (y) = 0.23739 -0.23091
# Poissons Ratio (z) = 0.27669 -0.13305
#
# Static dielectric constant tensor:
#      x y z
#    x 1.958290 -0.057080 0.009480 
#    y -0.057080 2.059280 -0.063990 
#    z 0.009480 -0.063990 2.042510 
# 
# From -- ./inp_files/175211.got.cif
#   From: 2010.05.17/outbox.cif.g08.bks.cpg/sg2_88_cif.got.tgz:175211.got - 2010.06.03 11:33:40.
