data_PCOD9007332
_publ_section_title
;
Structure prediction by ZEFSAII (Michael W. Deem and Ramdas Pophale) SiO2 
 PCOD9007332
Probable space group: P -1
;
_chemical_formula_sum "Si O2"
_cell_formula_units_Z 14
_cell_length_a 9.766388
_cell_length_b 9.180806
_cell_length_c 12.069314
_cell_angle_alpha 136.613748
_cell_angle_beta 106.070975
_cell_angle_gamma 69.983433
_cell_volume 697.795473
_symmetry_space_group_name_H-M "P -1"
_symmetry_group_IT_number 2
_symmetry_cell_setting 'triclinic'
loop_
_space_group_symop_operation_xyz
x,y,z
-x,-y,-z
loop_
_atom_site_type_symbol
_atom_site_label
_atom_site_fract_x
_atom_site_fract_y
_atom_site_fract_z
Si Si1 0.422175 0.797923 0.378804
Si Si2 0.039133 0.190177 0.038017
Si Si3 0.889787 0.592196 0.623331
Si Si4 0.645472 0.318557 0.454877
Si Si5 0.775112 0.098831 0.825352
Si Si6 0.527689 0.381373 0.056445
Si Si7 0.645473 0.931889 0.069751
O O1 0.358561 0.773289 0.472305
O O2 0.305434 0.838420 0.274684
O O3 0.532362 0.566258 0.249905
O O4 0.500000 0.000000 0.500000
O O5 0.030130 0.386878 0.230261
O O6 0.202738 0.129726 0.995035
O O7 0.918336 0.201126 0.922171
O O8 0.000000 0.000000 0.000000
O O9 0.776987 0.439185 0.532086
O O10 0.000000 0.500000 0.500000
O O11 0.811766 0.838710 0.707066
O O12 0.500000 0.500000 0.500000
O O13 0.651573 0.123944 0.262213
O O14 0.671199 0.199446 0.961160
O O15 0.500000 0.500000 0.000000
O O16 0.390569 0.276017 0.992430
O O17 0.500000 0.000000 0.000000
#
# Coordination Sequence:
#
# PCOD9007332 Si02
#       7
#     2   2   2   2   2   2   2
#     4  11  23  40  64  97 128 162 211 267 319 371
#     4  10  21  39  61  88 122 164 207 253 312 376
#     4  11  23  41  63  93 126 163 209 263 316 369
#     4  12  23  38  63  94 123 160 212 267 312 367
#     4  10  22  42  64  90 130 172 209 258 317 381
#     4  10  21  40  62  88 122 165 206 249 310 380
#     4  12  23  40  64  90 122 166 213 257 311 382
#
# _framework density 20.063185000000001
#
# number of rings (size 3 to 8) (size 9 to 14) (size 15 to 20)
#    0.000    1.143    0.000    9.429    0.000    2.286 
#    0.000    9.286    0.000    0.000    0.000    0.000 
#    0.000    0.000    0.000    0.000    0.000    0.000 
#
# Total GULP energy -78192.865946 kJ/mol
# GULP energy per Si atom -5585.204710 kJ/mol
# Density = 2.001752 g / cm^3
# Si number density = 20.063185 Si / 1000 Ang^3
#
#
#
# Elastic Constant Matrix: (Units=GPa)
#
#
# Indices 1 2 3 4 5 6 
#
# 1 183.3306 59.9322 91.1658 -4.0191 7.5138 28.7908
# 2 59.9322 97.0377 52.9503 -7.2114 9.4259 15.7629
# 3 91.1658 52.9503 195.3868 0.9201 2.1196 12.1442
# 4 -4.0191 -7.2114 0.9201 43.4735 -4.5906 6.8079
# 5 7.5138 9.4259 2.1196 -4.5906 48.1091 1.1749
# 6 28.7908 15.7629 12.1442 6.8079 1.1749 37.9666
#
#
#
# Elastic Compliance Matrix: (Units=1/GPa)
#
#
# Indices 1 2 3 4 5 6 
#
# 1 0.008620 -0.002837 -0.002968 0.001060 -0.000446 -0.004585
# 2 -0.002837 0.014246 -0.002316 0.002480 -0.001926 -0.003408
# 3 -0.002968 -0.002316 0.007061 -0.000929 0.000491 0.001105
# 4 0.001060 0.002480 -0.000929 0.024674 0.001891 -0.006019
# 5 -0.000446 -0.001926 0.000491 0.001891 0.021393 -0.000020
# 6 -0.004585 -0.003408 0.001105 -0.006019 -0.000020 0.031957
#
#
# Mechanical properties :
#
#
# Convention : Reuss Voigt Hill
#
# Bulk Modulus (GPa) = 73.07557 98.20575 85.64066
# Shear Modulus (GPa) = 38.83355 44.02362 41.42858
#
# Velocity S-wave (km/s) = 4.40428 4.68936 4.54905
# Velocity P-wave (km/s) = 7.89717 8.85295 8.38868
#
# Compressibility (1/GPa) = 0.01368446
#
# Stress axis : x y z
#
# Youngs Moduli (GPa) = 116.01273 70.19413 141.62332
#
# Poissons Ratio (x) = 0.19914 0.42037
# Poissons Ratio (y) = 0.32913 0.32800
# Poissons Ratio (z) = 0.34435 0.16257
#
# Static dielectric constant tensor:
#      x y z
#    x 1.716980 -0.042870 -0.006870 
#    y -0.042870 1.764910 -0.007160 
#    z -0.006870 -0.007160 1.731770 
# 
# From -- ./inp_files/179150.got.cif
#   From: 2010.05.17/outbox.cif.g08.bks.cpg/sg2_90_cif.got.tgz:179150.got - 2010.06.03 11:33:40.
