data_PCOD9007943
_publ_section_title
;
Structure prediction by ZEFSAII (Michael W. Deem and Ramdas Pophale) SiO2 
 PCOD9007943
Probable space group: P -1
;
_chemical_formula_sum "Si O2"
_cell_formula_units_Z 14
_cell_length_a 13.228594
_cell_length_b 10.762347
_cell_length_c 9.254709
_cell_angle_alpha 38.425192
_cell_angle_beta 125.787284
_cell_angle_gamma 139.183137
_cell_volume 535.147310
_symmetry_space_group_name_H-M "P -1"
_symmetry_group_IT_number 2
_symmetry_cell_setting 'triclinic'
loop_
_space_group_symop_operation_xyz
x,y,z
-x,-y,-z
loop_
_atom_site_type_symbol
_atom_site_label
_atom_site_fract_x
_atom_site_fract_y
_atom_site_fract_z
Si Si1 0.252035 0.051471 0.385342
Si Si2 0.215924 0.287932 0.863959
Si Si3 0.359565 0.137214 0.903148
Si Si4 0.090436 0.483431 0.767424
Si Si5 0.558953 0.151023 0.558340
Si Si6 0.281997 0.446143 0.210182
Si Si7 0.150723 0.644165 0.093747
O O1 0.412840 0.130774 0.512647
O O2 0.194964 0.157493 0.359827
O O3 0.155887 0.763829 0.524675
O O4 0.279898 0.211906 0.118446
O O5 0.076508 0.281911 0.828747
O O6 0.316502 0.572682 0.640710
O O7 0.239077 0.171182 0.849735
O O8 0.392786 0.979119 0.178471
O O9 0.267827 0.933447 0.886858
O O10 0.530703 0.387355 0.789186
O O11 0.926370 0.379572 0.795593
O O12 0.215864 0.526082 0.953184
O O13 0.500000 0.000000 0.500000
O O14 0.233181 0.510797 0.257477
O O15 0.000000 0.500000 0.000000
#
# Coordination Sequence:
#
# PCOD9007943 Si02
#       7
#     2   2   2   2   2   2   2
#     4  11  19  35  65  97 128 158 195 250 316 368
#     4  11  21  34  63  99 126 157 198 251 316 371
#     4  12  22  38  67  95 123 159 208 260 305 359
#     4  10  21  39  63  91 131 163 197 248 310 376
#     4  12  19  34  61 103 132 150 192 257 315 369
#     4  10  21  39  66  92 118 162 214 255 299 356
#     4  10  25  47  62  83 124 174 213 253 302 359
#
# _framework density 26.161021999999999
#
# number of rings (size 3 to 8) (size 9 to 14) (size 15 to 20)
#    0.000    1.143    5.714    1.714    0.000    1.143 
#    0.000   10.714    0.000    0.000    0.000    0.000 
#    0.000    0.000    0.000    0.000    0.000    0.000 
#
# Total GULP energy -78197.809401 kJ/mol
# GULP energy per Si atom -5585.557814 kJ/mol
# Density = 2.610148 g / cm^3
# Si number density = 26.161022 Si / 1000 Ang^3
#
#
#
# Elastic Constant Matrix: (Units=GPa)
#
#
# Indices 1 2 3 4 5 6 
#
# 1 172.1313 19.5420 26.6946 -8.4891 42.1725 -10.4556
# 2 19.5420 84.3447 26.4826 2.0866 18.6976 2.7751
# 3 26.6946 26.4826 137.1842 -4.7157 14.8962 -13.9710
# 4 -8.4891 2.0866 -4.7157 25.7224 -18.5954 13.6026
# 5 42.1725 18.6976 14.8962 -18.5954 37.6198 -18.5948
# 6 -10.4556 2.7751 -13.9710 13.6026 -18.5948 33.5733
#
#
#
# Elastic Compliance Matrix: (Units=1/GPa)
#
#
# Indices 1 2 3 4 5 6 
#
# 1 0.009150 0.002148 -0.001065 -0.007083 -0.016363 -0.003965
# 2 0.002148 0.016990 -0.002828 -0.010626 -0.019004 -0.008133
# 3 -0.001065 -0.002828 0.008306 0.000326 0.001469 0.004040
# 4 -0.007083 -0.010626 0.000326 0.074382 0.047331 -0.005114
# 5 -0.016363 -0.019004 0.001469 0.047331 0.091246 0.028446
# 6 -0.003965 -0.008133 0.004040 -0.005114 0.028446 0.048731
#
#
# Mechanical properties :
#
#
# Convention : Reuss Voigt Hill
#
# Bulk Modulus (GPa) = 32.30544 59.89983 46.10264
# Shear Modulus (GPa) = 19.03939 40.77915 29.90927
#
# Velocity S-wave (km/s) = 2.70066 3.95242 3.38490
# Velocity P-wave (km/s) = 4.70109 6.61627 5.73914
#
# Compressibility (1/GPa) = 0.03095454
#
# Stress axis : x y z
#
# Youngs Moduli (GPa) = 109.29120 58.85947 120.39829
#
# Poissons Ratio (x) = -0.12641 0.12828
# Poissons Ratio (y) = -0.23473 0.34044
# Poissons Ratio (z) = 0.11645 0.16643
#
# Static dielectric constant tensor:
#      x y z
#    x 2.935200 0.751060 0.231740 
#    y 0.751060 2.937170 0.261780 
#    z 0.231740 0.261780 2.108340 
# 
# From -- ./inp_files/106813.got.cif
#   From: 2010.05.17/outbox.cif.g08.bks.cpg/sg2_54_cif.got.tgz:106813.got - 2010.06.03 11:33:40.
