data_PCOD9007081
_publ_section_title
;
Structure prediction by ZEFSAII (Michael W. Deem and Ramdas Pophale) SiO2 
 PCOD9007081
Probable space group: P -1
;
_chemical_formula_sum "Si O2"
_cell_formula_units_Z 14
_cell_length_a 11.566246
_cell_length_b 14.473289
_cell_length_c 9.197392
_cell_angle_alpha 132.507927
_cell_angle_beta 115.958428
_cell_angle_gamma 29.873084
_cell_volume 517.236281
_symmetry_space_group_name_H-M "P -1"
_symmetry_group_IT_number 2
_symmetry_cell_setting 'triclinic'
loop_
_space_group_symop_operation_xyz
x,y,z
-x,-y,-z
loop_
_atom_site_type_symbol
_atom_site_label
_atom_site_fract_x
_atom_site_fract_y
_atom_site_fract_z
Si Si1 0.602636 0.702318 0.219464
Si Si2 0.698287 0.978850 0.133398
Si Si3 0.711743 0.539026 0.401243
Si Si4 0.020165 0.227566 0.518351
Si Si5 0.591950 0.369985 0.127405
Si Si6 0.900061 0.061707 0.247518
Si Si7 0.300699 0.275983 0.999390
O O1 0.783140 0.532438 0.276752
O O2 0.667437 0.747557 0.180379
O O3 0.323297 0.969185 0.413305
O O4 0.578342 0.590402 0.001337
O O5 0.449382 0.223559 0.350052
O O6 0.866447 0.961518 0.207109
O O7 0.802826 0.766493 0.037604
O O8 0.579894 0.054909 0.990229
O O9 0.531619 0.568071 0.308625
O O10 0.934033 0.308455 0.386344
O O11 0.873426 0.462581 0.765810
O O12 0.917702 0.178586 0.464502
O O13 0.668397 0.265515 0.221265
O O14 0.847208 0.155751 0.941710
#
# Coordination Sequence:
#
# PCOD9007081 Si02
#       7
#     2   2   2   2   2   2   2
#     4  11  21  41  64  92 130 161 207 266 301 379
#     4  10  21  39  59  94 125 163 211 258 303 382
#     4  10  22  37  62  95 124 161 209 256 318 364
#     4   9  22  42  64  96 120 165 212 255 315 369
#     4   9  18  34  60  94 119 161 206 255 316 364
#     4   9  17  35  65  88 123 159 210 255 307 373
#     4  10  22  40  63  89 129 168 208 254 317 366
#
# _framework density 27.066931
#
# number of rings (size 3 to 8) (size 9 to 14) (size 15 to 20)
#    0.000    2.286    1.429    1.286    2.000    2.286 
#    5.143    4.286    0.000    0.000    0.000    0.000 
#    0.000    0.000    0.000    0.000    0.000    0.000 
#
# Total GULP energy -78531.538208 kJ/mol
# GULP energy per Si atom -5609.395586 kJ/mol
# Density = 2.700533 g / cm^3
# Si number density = 27.066931 Si / 1000 Ang^3
#
#
#
# Elastic Constant Matrix: (Units=GPa)
#
#
# Indices 1 2 3 4 5 6 
#
# 1 177.8018 35.1524 31.0290 3.9187 16.1996 32.0454
# 2 35.1524 113.7170 12.5738 -9.7967 -1.4365 6.3786
# 3 31.0290 12.5738 60.7344 15.5207 22.9306 7.8268
# 4 3.9187 -9.7967 15.5207 43.4420 15.2740 -3.6390
# 5 16.1996 -1.4365 22.9306 15.2740 39.7197 5.3342
# 6 32.0454 6.3786 7.8268 -3.6390 5.3342 28.7627
#
#
#
# Elastic Compliance Matrix: (Units=1/GPa)
#
#
# Indices 1 2 3 4 5 6 
#
# 1 0.007830 -0.001820 -0.002187 -0.000741 -0.000679 -0.007693
# 2 -0.001820 0.009849 -0.002410 0.002835 0.001317 0.000613
# 3 -0.002187 -0.002410 0.023697 -0.005287 -0.010549 -0.002190
# 4 -0.000741 0.002835 -0.005287 0.029267 -0.008732 0.006958
# 5 -0.000679 0.001317 -0.010549 -0.008732 0.035534 -0.004360
# 6 -0.007693 0.000613 -0.002190 0.006958 -0.004360 0.045488
#
#
# Mechanical properties :
#
#
# Convention : Reuss Voigt Hill
#
# Bulk Modulus (GPa) = 35.03363 56.64042 45.83702
# Shear Modulus (GPa) = 28.73337 40.61809 34.67573
#
# Velocity S-wave (km/s) = 3.26170 3.87803 3.58314
# Velocity P-wave (km/s) = 5.21118 6.40497 5.83867
#
# Compressibility (1/GPa) = 0.02854401
#
# Stress axis : x y z
#
# Youngs Moduli (GPa) = 127.70811 101.53119 42.19859
#
# Poissons Ratio (x) = 0.18475 0.09227
# Poissons Ratio (y) = 0.23238 0.10171
# Poissons Ratio (z) = 0.27925 0.24471
#
# Static dielectric constant tensor:
#      x y z
#    x 2.100310 -0.017920 0.009860 
#    y -0.017920 2.091420 -0.020830 
#    z 0.009860 -0.020830 2.099350 
# 
# From -- ./inp_files/274454.got.cif
#   From: 2010.05.17/outbox.cif.g08.bks.cpg/sg2_138_cif.got.tgz:274454.got - 2010.06.03 11:33:40.
