data_PCOD9007229
_publ_section_title
;
Structure prediction by ZEFSAII (Michael W. Deem and Ramdas Pophale) SiO2 
 PCOD9007229
Probable space group: P -1
;
_chemical_formula_sum "Si O2"
_cell_formula_units_Z 12
_cell_length_a 11.584306
_cell_length_b 17.471703
_cell_length_c 8.284909
_cell_angle_alpha 53.358776
_cell_angle_beta 74.488172
_cell_angle_gamma 28.213991
_cell_volume 465.607210
_symmetry_space_group_name_H-M "P -1"
_symmetry_group_IT_number 2
_symmetry_cell_setting 'triclinic'
loop_
_space_group_symop_operation_xyz
x,y,z
-x,-y,-z
loop_
_atom_site_type_symbol
_atom_site_label
_atom_site_fract_x
_atom_site_fract_y
_atom_site_fract_z
Si Si1 0.891531 0.182535 0.879514
Si Si2 0.658125 0.349327 0.297279
Si Si3 0.901351 0.680003 0.763835
Si Si4 0.863533 0.798846 0.304423
Si Si5 0.732423 0.079748 0.590488
Si Si6 0.211451 0.169427 0.067934
O O1 0.501578 0.486393 0.690104
O O2 0.054341 0.151523 0.767454
O O3 0.000000 0.000000 0.000000
O O4 0.043332 0.081888 0.128512
O O5 0.571199 0.302390 0.388104
O O6 0.500000 0.500000 0.000000
O O7 0.050300 0.074540 0.461885
O O8 0.026306 0.620493 0.616556
O O9 0.021828 0.648953 0.915892
O O10 0.500000 0.000000 0.500000
O O11 0.000000 0.500000 0.000000
O O12 0.471446 0.063296 0.114164
O O13 0.950364 0.705861 0.204751
O O14 0.590890 0.077838 0.664518
#
# Coordination Sequence:
#
# PCOD9007229 Si02
#       6
#     2   2   2   2   2   2
#     4  10  21  39  60  92 128 167 219 273 336 396
#     4   9  19  37  58  87 119 165 216 267 318 394
#     4  10  22  43  63  97 136 177 226 275 343 414
#     4   9  20  41  63  96 130 171 221 274 342 405
#     4   9  19  39  62  87 124 168 225 263 332 399
#     4   9  19  41  65  93 129 173 217 279 338 403
#
# _framework density 25.772798000000002
#
# number of rings (size 3 to 8) (size 9 to 14) (size 15 to 20)
#    0.000    2.667    0.000    0.000    0.000    5.333 
#   39.000    0.000    0.000    0.000    0.000    0.000 
#    0.000    0.000    0.000    0.000    0.000    0.000 
#
# Total GULP energy -66922.358345 kJ/mol
# GULP energy per Si atom -5576.863195 kJ/mol
# Density = 2.571414 g / cm^3
# Si number density = 25.772798 Si / 1000 Ang^3
#
#
#
# Elastic Constant Matrix: (Units=GPa)
#
#
# Indices 1 2 3 4 5 6 
#
# 1 153.2674 62.2533 60.7145 9.2413 -29.1974 2.7816
# 2 62.2533 131.7997 58.6248 22.5692 -18.5339 12.2756
# 3 60.7145 58.6248 131.1740 40.3736 -38.5974 8.0714
# 4 9.2413 22.5692 40.3736 52.4930 4.4071 4.8154
# 5 -29.1974 -18.5339 -38.5974 4.4071 48.0027 0.1218
# 6 2.7816 12.2756 8.0714 4.8154 0.1218 48.9686
#
#
#
# Elastic Compliance Matrix: (Units=1/GPa)
#
#
# Indices 1 2 3 4 5 6 
#
# 1 0.009181 -0.003149 -0.002831 0.001701 0.001934 0.000562
# 2 -0.003149 0.010766 -0.002486 -0.002023 0.000433 -0.001912
# 3 -0.002831 -0.002486 0.018040 -0.013320 0.013049 -0.000912
# 4 0.001701 -0.002023 -0.013320 0.031020 -0.013303 -0.000411
# 5 0.001934 0.000433 0.013049 -0.013303 0.033892 -0.001145
# 6 0.000562 -0.001912 -0.000912 -0.000411 -0.001145 0.021062
#
#
# Mechanical properties :
#
#
# Convention : Reuss Voigt Hill
#
# Bulk Modulus (GPa) = 47.49554 86.60292 67.04923
# Shear Modulus (GPa) = 33.80388 45.53609 39.66999
#
# Velocity S-wave (km/s) = 3.62555 4.20793 3.92754
# Velocity P-wave (km/s) = 5.99956 7.56864 6.82931
#
# Compressibility (1/GPa) = 0.02105461
#
# Stress axis : x y z
#
# Youngs Moduli (GPa) = 108.92432 92.88608 55.43099
#
# Poissons Ratio (x) = 0.29247 0.15693
# Poissons Ratio (y) = 0.34297 0.13783
# Poissons Ratio (z) = 0.30837 0.23096
#
# Static dielectric constant tensor:
#      x y z
#    x 2.027180 -0.011730 0.023160 
#    y -0.011730 2.221020 -0.146210 
#    z 0.023160 -0.146210 2.289850 
# 
# From -- ./inp_files/278992.got.cif
#   From: 2010.05.17/outbox.cif.g08.bks.cpg/sg2_140_cif.got.tgz:278992.got - 2010.06.03 11:33:40.
