data_PCOD9007047
_publ_section_title
;
Structure prediction by ZEFSAII (Michael W. Deem and Ramdas Pophale) SiO2 
 PCOD9007047
Probable space group: P -1
;
_chemical_formula_sum "Si O2"
_cell_formula_units_Z 16
_cell_length_a 13.589519
_cell_length_b 19.689819
_cell_length_c 7.952516
_cell_angle_alpha 51.013767
_cell_angle_beta 70.550160
_cell_angle_gamma 29.691157
_cell_volume 681.696475
_symmetry_space_group_name_H-M "P -1"
_symmetry_group_IT_number 2
_symmetry_cell_setting 'triclinic'
loop_
_space_group_symop_operation_xyz
x,y,z
-x,-y,-z
loop_
_atom_site_type_symbol
_atom_site_label
_atom_site_fract_x
_atom_site_fract_y
_atom_site_fract_z
Si Si1 0.881243 0.536484 0.717307
Si Si2 0.763735 0.059287 0.951974
Si Si3 0.336138 0.113173 0.634509
Si Si4 0.309659 0.713471 0.838111
Si Si5 0.401100 0.214639 0.820972
Si Si6 0.190204 0.985093 0.398811
Si Si7 0.838224 0.811545 0.710235
Si Si8 0.259812 0.729579 0.240786
O O1 0.790017 0.697960 0.588407
O O2 0.679662 0.673169 0.476354
O O3 0.146016 0.361635 0.772239
O O4 0.935460 0.413604 0.998325
O O5 0.515133 0.196788 0.918191
O O6 0.800895 0.004008 0.822620
O O7 0.735683 0.184136 0.792383
O O8 0.017851 0.857214 0.214880
O O9 0.179628 0.172752 0.505156
O O10 0.602811 0.931808 0.701207
O O11 0.393608 0.015748 0.924429
O O12 0.363224 0.773682 0.670076
O O13 0.500000 0.500000 0.000000
O O14 0.265036 0.745055 0.014310
O O15 0.068417 0.862061 0.654604
O O16 0.202884 0.064518 0.372083
O O17 0.500000 0.500000 0.500000
#
# Coordination Sequence:
#
# PCOD9007047 Si02
#       8
#     2   2   2   2   2   2   2   2
#     4  10  21  39  60  90 124 163 213 262 303 376
#     4  10  22  40  62  88 122 164 204 255 312 368
#     4  10  21  39  59  88 128 163 205 265 309 366
#     4  10  22  41  62  90 122 156 204 256 308 373
#     4  10  22  37  62  89 123 163 214 254 315 365
#     4  10  22  40  63  86 122 163 206 247 312 375
#     4  10  22  38  61  88 123 166 210 254 315 369
#     4  10  22  40  64  90 123 156 205 260 310 370
#
# _framework density 23.470856000000001
#
# number of rings (size 3 to 8) (size 9 to 14) (size 15 to 20)
#    0.000    2.000    0.000    2.250    1.750    8.000 
#    2.250    0.000    0.000    0.000    0.000    0.000 
#    0.000    0.000    0.000    0.000    0.000    0.000 
#
# Total GULP energy -89150.967816 kJ/mol
# GULP energy per Si atom -5571.935489 kJ/mol
# Density = 2.341744 g / cm^3
# Si number density = 23.470856 Si / 1000 Ang^3
#
#
#
# Elastic Constant Matrix: (Units=GPa)
#
#
# Indices 1 2 3 4 5 6 
#
# 1 145.5276 15.1077 72.7368 -7.4951 20.9282 9.9369
# 2 15.1077 31.7100 26.2799 -17.1644 -1.5735 12.1633
# 3 72.7368 26.2799 176.7617 -24.9161 -2.5362 20.4085
# 4 -7.4951 -17.1644 -24.9161 30.8904 2.4688 -10.2539
# 5 20.9282 -1.5735 -2.5362 2.4688 34.2495 2.6824
# 6 9.9369 12.1633 20.4085 -10.2539 2.6824 30.0505
#
#
#
# Elastic Compliance Matrix: (Units=1/GPa)
#
#
# Indices 1 2 3 4 5 6 
#
# 1 0.010024 -0.002883 -0.004109 -0.001760 -0.006484 0.000621
# 2 -0.002883 0.050872 -0.001941 0.022066 0.003232 -0.011079
# 3 -0.004109 -0.001941 0.008502 0.003664 0.002994 -0.002646
# 4 -0.001760 0.022066 0.003664 0.049337 -0.001677 0.006146
# 5 -0.006484 0.003232 0.002994 -0.001677 0.034027 -0.004807
# 6 0.000621 -0.011079 -0.002646 0.006146 -0.004807 0.041880
#
#
# Mechanical properties :
#
#
# Convention : Reuss Voigt Hill
#
# Bulk Modulus (GPa) = 19.40540 64.69423 42.04982
# Shear Modulus (GPa) = 21.76896 35.02974 28.39935
#
# Velocity S-wave (km/s) = 3.04877 3.86745 3.48226
# Velocity P-wave (km/s) = 4.54744 6.89684 5.84147
#
# Compressibility (1/GPa) = 0.05153204
#
# Stress axis : x y z
#
# Youngs Moduli (GPa) = 99.76132 19.65703 117.62253
#
# Poissons Ratio (x) = 0.05667 0.48331
# Poissons Ratio (y) = 0.28760 0.22833
# Poissons Ratio (z) = 0.40992 0.03816
#
# Static dielectric constant tensor:
#      x y z
#    x 1.914970 -0.047200 -0.026900 
#    y -0.047200 1.977140 0.057230 
#    z -0.026900 0.057230 1.971430 
# 
# From -- ./inp_files/279023.got.cif
#   From: 2010.05.17/outbox.cif.g08.bks.cpg/sg2_140_cif.got.tgz:279023.got - 2010.06.03 11:33:40.
