data_PCOD9007315
_publ_section_title
;
Structure prediction by ZEFSAII (Michael W. Deem and Ramdas Pophale) SiO2 
 PCOD9007315
Probable space group: P -1
;
_chemical_formula_sum "Si O2"
_cell_formula_units_Z 16
_cell_length_a 9.094651
_cell_length_b 12.487776
_cell_length_c 10.097626
_cell_angle_alpha 76.821760
_cell_angle_beta 96.921026
_cell_angle_gamma 147.666960
_cell_volume 591.448724
_symmetry_space_group_name_H-M "P -1"
_symmetry_group_IT_number 2
_symmetry_cell_setting 'triclinic'
loop_
_space_group_symop_operation_xyz
x,y,z
-x,-y,-z
loop_
_atom_site_type_symbol
_atom_site_label
_atom_site_fract_x
_atom_site_fract_y
_atom_site_fract_z
Si Si1 0.599519 0.310428 0.932616
Si Si2 0.638376 0.716063 0.321734
Si Si3 0.150585 0.228876 0.405318
Si Si4 0.633795 0.129083 0.682523
Si Si5 0.551964 0.874737 0.559485
Si Si6 0.927550 0.732232 0.168759
Si Si7 0.619801 0.728586 0.816984
Si Si8 0.168655 0.784647 0.934216
O O1 0.464894 0.252167 0.793118
O O2 0.876704 0.561482 0.903638
O O3 0.396293 0.225877 0.053625
O O4 0.707800 0.254463 0.986281
O O5 0.377050 0.467725 0.367535
O O6 0.733626 0.784520 0.465947
O O7 0.885966 0.808691 0.240650
O O8 0.134406 0.174445 0.267677
O O9 0.857767 0.080311 0.472011
O O10 0.523157 0.959634 0.628663
O O11 0.928242 0.274602 0.729881
O O12 0.648860 0.242243 0.555291
O O13 0.395331 0.977183 0.808598
O O14 0.521899 0.756034 0.689993
O O15 0.622376 0.514018 0.144290
O O16 0.106596 0.836631 0.025674
#
# Coordination Sequence:
#
# PCOD9007315 Si02
#       8
#     2   2   2   2   2   2   2   2
#     4  10  21  39  63  90 120 157 199 245 299 352
#     4  10  21  39  63  90 120 157 199 245 299 352
#     4  10  21  39  61  87 122 156 196 248 295 352
#     4  11  22  38  60  85 119 160 197 239 298 357
#     4  11  22  38  60  85 119 160 197 239 298 357
#     4  10  22  40  61  88 121 153 197 251 295 351
#     4  10  22  40  61  88 121 153 197 251 295 351
#     4  10  21  39  61  87 122 156 196 248 295 352
#
# _framework density 27.052220999999999
#
# number of rings (size 3 to 8) (size 9 to 14) (size 15 to 20)
#    0.000    1.750    2.500    1.500    0.000    7.000 
#    0.000    2.500    0.000    0.000    0.000    0.000 
#    0.000    0.000    0.000    0.000    0.000    0.000 
#
# Total GULP energy -89554.823151 kJ/mol
# GULP energy per Si atom -5597.176447 kJ/mol
# Density = 2.699065 g / cm^3
# Si number density = 27.052221 Si / 1000 Ang^3
#
#
#
# Elastic Constant Matrix: (Units=GPa)
#
#
# Indices 1 2 3 4 5 6 
#
# 1 99.5383 30.9259 72.1498 3.0811 -12.5883 -0.7381
# 2 30.9259 84.1066 38.6276 0.9548 -10.8137 10.3339
# 3 72.1498 38.6276 160.5278 20.3284 -6.1027 5.1160
# 4 3.0811 0.9548 20.3284 43.3862 2.2925 -2.1630
# 5 -12.5883 -10.8137 -6.1027 2.2925 65.3541 15.1110
# 6 -0.7381 10.3339 5.1160 -2.1630 15.1110 35.6958
#
#
#
# Elastic Compliance Matrix: (Units=1/GPa)
#
#
# Indices 1 2 3 4 5 6 
#
# 1 0.015949 -0.002781 -0.006756 0.002091 0.001543 0.001576
# 2 -0.002781 0.014905 -0.002112 0.000440 0.002941 -0.005288
# 3 -0.006756 -0.002112 0.010355 -0.004370 -0.000261 -0.001167
# 4 0.002091 0.000440 -0.004370 0.025147 -0.001432 0.002672
# 5 0.001543 0.002941 -0.000261 -0.001432 0.018082 -0.008523
# 6 0.001576 -0.005288 -0.001167 0.002672 -0.008523 0.033515
#
#
# Mechanical properties :
#
#
# Convention : Reuss Voigt Hill
#
# Bulk Modulus (GPa) = 55.82945 69.73103 62.78024
# Shear Modulus (GPa) = 33.96254 42.38517 38.17386
#
# Velocity S-wave (km/s) = 3.54707 3.96256 3.76056
# Velocity P-wave (km/s) = 6.12030 6.83874 6.48947
#
# Compressibility (1/GPa) = 0.01791169
#
# Stress axis : x y z
#
# Youngs Moduli (GPa) = 62.69846 67.09140 96.57461
#
# Poissons Ratio (x) = 0.18657 0.65243
# Poissons Ratio (y) = 0.17436 0.20398
# Poissons Ratio (z) = 0.42357 0.14170
#
# Static dielectric constant tensor:
#      x y z
#    x 2.178820 0.012740 0.062040 
#    y 0.012740 2.075910 0.026770 
#    z 0.062040 0.026770 2.127120 
# 
# From -- ./inp_files/206442.got.cif
#   From: 2010.05.17/outbox.cif.g08.bks.cpg/sg2_104_cif.got.tgz:206442.got - 2010.06.03 11:33:40.
