data_PCOD9007587
_publ_section_title
;
Structure prediction by ZEFSAII (Michael W. Deem and Ramdas Pophale) SiO2 
 PCOD9007587
Probable space group: P -1
;
_chemical_formula_sum "Si O2"
_cell_formula_units_Z 14
_cell_length_a 12.630562
_cell_length_b 5.351236
_cell_length_c 14.840125
_cell_angle_alpha 36.916387
_cell_angle_beta 108.975253
_cell_angle_gamma 105.955117
_cell_volume 569.534285
_symmetry_space_group_name_H-M "P -1"
_symmetry_group_IT_number 2
_symmetry_cell_setting 'triclinic'
loop_
_space_group_symop_operation_xyz
x,y,z
-x,-y,-z
loop_
_atom_site_type_symbol
_atom_site_label
_atom_site_fract_x
_atom_site_fract_y
_atom_site_fract_z
Si Si1 0.068463 0.431000 0.412145
Si Si2 0.451571 0.820330 0.818443
Si Si3 0.069704 0.689854 0.047848
Si Si4 0.166446 0.371973 0.644788
Si Si5 0.436886 0.502996 0.230816
Si Si6 0.214363 0.287125 0.342240
Si Si7 0.288307 0.155353 0.904568
O O1 0.145195 0.314429 0.550932
O O2 0.153733 0.580821 0.314193
O O3 0.958549 0.693973 0.329304
O O4 0.000000 0.000000 0.500000
O O5 0.515571 0.810298 0.740940
O O6 0.332676 0.607417 0.818452
O O7 0.473783 0.264725 0.745044
O O8 0.500000 0.500000 0.000000
O O9 0.176011 0.986347 0.967855
O O10 0.125753 0.320046 0.226967
O O11 0.000000 0.500000 0.000000
O O12 0.000000 0.000000 0.000000
O O13 0.254112 0.133519 0.797287
O O14 0.209210 0.851510 0.517704
O O15 0.335371 0.362541 0.309691
O O16 0.383112 0.845916 0.051039
#
# Coordination Sequence:
#
# PCOD9007587 Si02
#       7
#     2   2   2   2   2   2   2
#     4   9  20  37  58  85 126 175 204 244 308 379
#     4  10  21  43  67  93 123 163 210 264 316 369
#     4  11  26  40  63  94 128 159 207 259 307 368
#     4  10  21  39  62  88 128 167 212 248 311 380
#     4  10  23  42  68  93 124 162 210 269 317 360
#     4  10  23  39  62  89 127 167 203 258 321 364
#     4  10  22  40  64  94 120 165 213 256 306 379
#
# _framework density 24.581486000000002
#
# number of rings (size 3 to 8) (size 9 to 14) (size 15 to 20)
#    0.000    2.000    0.000    2.571   10.000    6.857 
#   15.429    1.429    0.000    0.000    0.000    0.000 
#    0.000    0.000    0.000    0.000    0.000    0.000 
#
# Total GULP energy -78075.888480 kJ/mol
# GULP energy per Si atom -5576.849177 kJ/mol
# Density = 2.452554 g / cm^3
# Si number density = 24.581486 Si / 1000 Ang^3
#
#
#
# Elastic Constant Matrix: (Units=GPa)
#
#
# Indices 1 2 3 4 5 6 
#
# 1 142.6904 48.1900 28.2114 0.6775 -51.1399 2.6913
# 2 48.1900 131.9923 -0.7620 32.3157 -9.1862 1.1289
# 3 28.2114 -0.7620 56.3431 14.8849 -18.1471 3.0789
# 4 0.6775 32.3157 14.8849 33.0392 2.3674 -6.6699
# 5 -51.1399 -9.1862 -18.1471 2.3674 35.3479 6.6837
# 6 2.6913 1.1289 3.0789 -6.6699 6.6837 40.7781
#
#
#
# Elastic Compliance Matrix: (Units=1/GPa)
#
#
# Indices 1 2 3 4 5 6 
#
# 1 0.018105 -0.005799 -0.002094 0.003657 0.024169 -0.004239
# 2 -0.005799 0.014693 0.009190 -0.019414 0.002252 -0.004263
# 3 -0.002094 0.009190 0.033285 -0.027502 0.020264 -0.010449
# 4 0.003657 -0.019414 -0.027502 0.066498 -0.021500 0.016773
# 5 0.024169 0.002252 0.020264 -0.021500 0.079414 -0.019720
# 6 -0.004239 -0.004263 -0.010449 0.016773 -0.019720 0.031686
#
#
# Mechanical properties :
#
#
# Convention : Reuss Voigt Hill
#
# Bulk Modulus (GPa) = 14.56116 53.58938 34.07527
# Shear Modulus (GPa) = 18.94089 38.85881 28.89985
#
# Velocity S-wave (km/s) = 2.77886 3.98026 3.43253
# Velocity P-wave (km/s) = 4.02897 6.55525 5.44077
#
# Compressibility (1/GPa) = 0.06867586
#
# Stress axis : x y z
#
# Youngs Moduli (GPa) = 55.23254 68.05964 30.04397
#
# Poissons Ratio (x) = 0.39469 0.06291
# Poissons Ratio (y) = 0.32031 -0.27610
# Poissons Ratio (z) = 0.11566 -0.62545
#
# Static dielectric constant tensor:
#      x y z
#    x 2.210020 -0.175580 0.046980 
#    y -0.175580 2.039960 -0.092260 
#    z 0.046980 -0.092260 2.058540 
# 
# From -- ./inp_files/525491.got.cif
#   From: 2010.05.17/outbox.cif.g08.bks.cpg/sg2_263_cif.got.tgz:525491.got - 2010.06.03 11:33:40.
