data_PCOD9007707
_publ_section_title
;
Structure prediction by ZEFSAII (Michael W. Deem and Ramdas Pophale) SiO2 
 PCOD9007707
Probable space group: P -1
;
_chemical_formula_sum "Si O2"
_cell_formula_units_Z 16
_cell_length_a 13.914792
_cell_length_b 9.160168
_cell_length_c 8.284949
_cell_angle_alpha 46.759603
_cell_angle_beta 63.415328
_cell_angle_gamma 81.103803
_cell_volume 668.986838
_symmetry_space_group_name_H-M "P -1"
_symmetry_group_IT_number 2
_symmetry_cell_setting 'triclinic'
loop_
_space_group_symop_operation_xyz
x,y,z
-x,-y,-z
loop_
_atom_site_type_symbol
_atom_site_label
_atom_site_fract_x
_atom_site_fract_y
_atom_site_fract_z
Si Si1 0.141806 0.664716 0.808381
Si Si2 0.089651 0.740490 0.129031
Si Si3 0.697208 0.177896 0.899773
Si Si4 0.338305 0.990199 0.293610
Si Si5 0.500762 0.586401 0.113973
Si Si6 0.473620 0.131081 0.577442
Si Si7 0.084412 0.234768 0.186738
Si Si8 0.050392 0.100643 0.662991
O O1 0.094651 0.608302 0.066717
O O2 0.248154 0.852765 0.585060
O O3 0.040716 0.725227 0.745502
O O4 0.161372 0.445964 0.902330
O O5 0.099865 0.961348 0.857892
O O6 0.188640 0.715406 0.187002
O O7 0.984539 0.726644 0.333351
O O8 0.708760 0.087459 0.784735
O O9 0.606128 0.316493 0.858303
O O10 0.649005 0.983063 0.198290
O O11 0.448776 0.913418 0.304489
O O12 0.386718 0.235904 0.081106
O O13 0.492174 0.374992 0.374727
O O14 0.500000 0.500000 0.000000
O O15 0.500000 0.000000 0.500000
O O16 0.113733 0.174309 0.391215
O O17 0.062170 0.051628 0.210634
#
# Coordination Sequence:
#
# PCOD9007707 Si02
#       8
#     2   2   2   2   2   2   2   2
#     4  10  21  39  63  91 130 167 211 265 318 381
#     4  10  21  39  62  92 130 166 213 266 313 385
#     4  11  24  42  63  96 135 168 215 268 315 388
#     4  11  24  42  64  97 134 167 216 268 316 387
#     4  11  23  43  71  92 127 177 207 268 333 372
#     4  11  21  43  69  94 129 163 218 270 319 387
#     4   9  19  40  65  91 126 168 209 267 325 375
#     4   9  19  40  65  92 126 169 213 266 326 377
#
# _framework density 23.916764000000001
#
# number of rings (size 3 to 8) (size 9 to 14) (size 15 to 20)
#    0.000    1.750    2.500    3.000    0.000    2.500 
#   13.500    1.250    0.000    0.000    0.000    0.000 
#    0.000    0.000    0.000    0.000    0.000    0.000 
#
# Total GULP energy -89222.255438 kJ/mol
# GULP energy per Si atom -5576.390965 kJ/mol
# Density = 2.386233 g / cm^3
# Si number density = 23.916764 Si / 1000 Ang^3
#
#
#
# Elastic Constant Matrix: (Units=GPa)
#
#
# Indices 1 2 3 4 5 6 
#
# 1 86.0090 22.2386 16.7148 -9.6872 4.4525 15.8059
# 2 22.2386 101.9989 35.6438 -10.0180 -0.3930 17.2137
# 3 16.7148 35.6438 96.5299 -27.9468 5.2362 -1.6375
# 4 -9.6872 -10.0180 -27.9468 54.0094 1.4304 11.2548
# 5 4.4525 -0.3930 5.2362 1.4304 31.9912 3.7054
# 6 15.8059 17.2137 -1.6375 11.2548 3.7054 24.8876
#
#
#
# Elastic Compliance Matrix: (Units=1/GPa)
#
#
# Indices 1 2 3 4 5 6 
#
# 1 0.014462 -0.000514 -0.001273 0.004078 -0.000760 -0.010643
# 2 -0.000514 0.013535 -0.004561 0.002223 0.002119 -0.010655
# 3 -0.001273 -0.004561 0.014122 0.005742 -0.002761 0.002706
# 4 0.004078 0.002223 0.005742 0.025843 -0.000863 -0.015308
# 5 -0.000760 0.002119 -0.002761 -0.000863 0.032532 -0.005618
# 6 -0.010643 -0.010655 0.002706 -0.015308 -0.005618 0.062247
#
#
# Mechanical properties :
#
#
# Convention : Reuss Voigt Hill
#
# Bulk Modulus (GPa) = 33.98811 48.19248 41.09030
# Shear Modulus (GPa) = 26.99147 36.17368 31.58257
#
# Velocity S-wave (km/s) = 3.36305 3.89328 3.63784
# Velocity P-wave (km/s) = 5.41498 6.35642 5.90449
#
# Compressibility (1/GPa) = 0.02942205
#
# Stress axis : x y z
#
# Youngs Moduli (GPa) = 69.14845 73.88423 70.81095
#
# Poissons Ratio (x) = 0.03801 0.09013
# Poissons Ratio (y) = 0.03557 0.32296
# Poissons Ratio (z) = 0.08802 0.33698
#
# Static dielectric constant tensor:
#      x y z
#    x 1.905690 -0.060480 0.034580 
#    y -0.060480 2.004980 -0.056110 
#    z 0.034580 -0.056110 1.929240 
# 
# From -- ./inp_files/294022.got.cif
#   From: 2010.05.17/outbox.cif.g08.bks.cpg/sg2_148_cif.got.tgz:294022.got - 2010.06.03 11:33:40.
