data_PCOD9007053
_publ_section_title
;
Structure prediction by ZEFSAII (Michael W. Deem and Ramdas Pophale) SiO2 
 PCOD9007053
Probable space group: P -1
;
_chemical_formula_sum "Si O2"
_cell_formula_units_Z 16
_cell_length_a 16.244954
_cell_length_b 6.964428
_cell_length_c 19.575144
_cell_angle_alpha 50.409510
_cell_angle_beta 26.210570
_cell_angle_gamma 58.112116
_cell_volume 747.601621
_symmetry_space_group_name_H-M "P -1"
_symmetry_group_IT_number 2
_symmetry_cell_setting 'triclinic'
loop_
_space_group_symop_operation_xyz
x,y,z
-x,-y,-z
loop_
_atom_site_type_symbol
_atom_site_label
_atom_site_fract_x
_atom_site_fract_y
_atom_site_fract_z
Si Si1 0.706825 0.796772 0.037481
Si Si2 0.135464 0.551750 0.558197
Si Si3 0.675472 0.141131 0.769018
Si Si4 0.952234 0.344554 0.255207
Si Si5 0.489416 0.713223 0.649599
Si Si6 0.409679 0.732266 0.544367
Si Si7 0.817075 0.253691 0.935075
Si Si8 0.457207 0.394933 0.980645
O O1 0.880122 0.810892 0.853602
O O2 0.763945 0.964635 0.023510
O O3 0.521118 0.882852 0.122434
O O4 0.652060 0.506903 0.162673
O O5 0.168560 0.721541 0.428193
O O6 0.141707 0.714139 0.587164
O O7 0.304776 0.379907 0.475686
O O8 0.937596 0.375743 0.752112
O O9 0.690641 0.858178 0.844023
O O10 0.630881 0.308185 0.829211
O O11 0.802451 0.304067 0.316274
O O12 0.043886 0.636297 0.133028
O O13 0.433657 0.727603 0.608711
O O14 0.496770 0.991348 0.611655
O O15 0.500000 0.500000 0.500000
O O16 0.633938 0.395571 0.041303
O O17 0.500000 0.500000 0.000000
#
# Coordination Sequence:
#
# PCOD9007053 Si02
#       8
#     2   2   2   2   2   2   2   2
#     4  11  21  41  61  88 125 163 198 255 294 367
#     4   9  20  42  58  90 120 160 201 246 294 367
#     4  10  21  39  62  87 123 156 208 247 302 356
#     4  10  22  39  62  88 123 162 201 246 308 354
#     4  10  23  39  64  91 119 159 211 242 304 359
#     4  11  21  42  64  88 123 159 197 259 300 356
#     4  10  21  39  59  89 128 156 203 248 304 356
#     4  11  21  39  63  90 119 164 199 255 303 356
#
# _framework density 21.401771
#
# number of rings (size 3 to 8) (size 9 to 14) (size 15 to 20)
#    0.750    1.000    3.750    0.750    0.000    2.000 
#    6.750    1.875    0.000    0.000    0.000    0.000 
#    0.000    0.000    0.000    0.000    0.000    0.000 
#
# Total GULP energy -89248.778350 kJ/mol
# GULP energy per Si atom -5578.048647 kJ/mol
# Density = 2.135306 g / cm^3
# Si number density = 21.401771 Si / 1000 Ang^3
#
#
#
# Elastic Constant Matrix: (Units=GPa)
#
#
# Indices 1 2 3 4 5 6 
#
# 1 57.4268 21.3372 -2.9322 -20.0040 -7.6229 12.6999
# 2 21.3372 124.7519 40.3976 -20.5871 0.4862 20.4122
# 3 -2.9322 40.3976 40.6703 -5.3721 2.4345 -4.1302
# 4 -20.0040 -20.5871 -5.3721 27.1769 5.2455 -0.7591
# 5 -7.6229 0.4862 2.4345 5.2455 27.2695 -5.7400
# 6 12.6999 20.4122 -4.1302 -0.7591 -5.7400 28.1028
#
#
#
# Elastic Compliance Matrix: (Units=1/GPa)
#
#
# Indices 1 2 3 4 5 6 
#
# 1 0.027320 -0.001479 0.004929 0.019413 0.001441 -0.009729
# 2 -0.001479 0.018578 -0.018665 0.009682 -0.004350 -0.016196
# 3 0.004929 -0.018665 0.045040 -0.001449 0.001816 0.018281
# 4 0.019413 0.009682 -0.001449 0.059512 -0.009506 -0.016353
# 5 0.001441 -0.004350 0.001816 -0.009506 0.041116 0.010916
# 6 -0.009729 -0.016196 0.018281 -0.016353 0.010916 0.056218
#
#
# Mechanical properties :
#
#
# Convention : Reuss Voigt Hill
#
# Bulk Modulus (GPa) = 16.52712 37.82824 27.17768
# Shear Modulus (GPa) = 16.75694 27.44628 22.10161
#
# Velocity S-wave (km/s) = 2.80120 3.58499 3.21705
# Velocity P-wave (km/s) = 4.26630 5.90338 5.15030
#
# Compressibility (1/GPa) = 0.06050661
#
# Stress axis : x y z
#
# Youngs Moduli (GPa) = 36.60342 53.82739 22.20246
#
# Poissons Ratio (x) = 0.07960 -0.10943
# Poissons Ratio (y) = 0.05413 0.41442
# Poissons Ratio (z) = -0.18040 1.00471
#
# Static dielectric constant tensor:
#      x y z
#    x 1.852910 -0.003170 0.003710 
#    y -0.003170 1.792860 0.008140 
#    z 0.003710 0.008140 1.795590 
# 
# From -- ./inp_files/598975.got.cif
#   From: 2010.05.17/outbox.cif.g08.bks.cpg/sg2_300_cif.got.tgz:598975.got - 2010.06.03 11:33:40.
