data_PCOD9007179
_publ_section_title
;
Structure prediction by ZEFSAII (Michael W. Deem and Ramdas Pophale) SiO2 
 PCOD9007179
Probable space group: P -1
;
_chemical_formula_sum "Si O2"
_cell_formula_units_Z 15
_cell_length_a 9.845547
_cell_length_b 9.902243
_cell_length_c 8.634380
_cell_angle_alpha 78.711968
_cell_angle_beta 49.388660
_cell_angle_gamma 100.146168
_cell_volume 572.207960
_symmetry_space_group_name_H-M "P -1"
_symmetry_group_IT_number 2
_symmetry_cell_setting 'triclinic'
loop_
_space_group_symop_operation_xyz
x,y,z
-x,-y,-z
loop_
_atom_site_type_symbol
_atom_site_label
_atom_site_fract_x
_atom_site_fract_y
_atom_site_fract_z
Si Si1 0.208370 0.124203 0.756938
Si Si2 0.202130 0.321532 0.176807
Si Si3 0.948579 0.999556 0.716067
Si Si4 0.887142 0.279259 0.671879
Si Si5 0.151246 0.411601 0.737107
Si Si6 0.500000 0.000000 0.500000
Si Si7 0.247775 0.711317 0.746656
Si Si8 0.577659 0.338211 0.076848
O O1 0.255280 0.298676 0.709296
O O2 0.376811 0.072275 0.682318
O O3 0.151060 0.098908 0.625235
O O4 0.000000 0.000000 0.000000
O O5 0.368737 0.320927 0.173742
O O6 0.157442 0.178191 0.130580
O O7 0.003400 0.306911 0.416620
O O8 0.300471 0.488875 0.994512
O O9 0.000000 0.000000 0.500000
O O10 0.828701 0.103794 0.798245
O O11 0.054983 0.381753 0.645209
O O12 0.701102 0.314252 0.846290
O O13 0.265644 0.585634 0.653604
O O14 0.962997 0.351589 0.003878
O O15 0.705583 0.126875 0.392321
O O16 0.404354 0.759181 0.766216
#
# Coordination Sequence:
#
# PCOD9007179 Si02
#       8
#     2   2   2   2   2   1   2   2
#     4  11  23  42  65  95 132 165 215 269 316 388
#     4  10  21  39  60  89 119 165 205 253 311 370
#     4   9  21  39  65  91 123 169 205 256 321 368
#     4   9  19  39  62  86 119 162 200 253 309 374
#     4   9  20  41  65  89 127 164 206 257 324 373
#     4  12  26  40  64  98 128 170 216 264 328 376
#     4  10  22  40  64  94 125 168 208 266 318 379
#     4  10  22  37  61  87 125 156 207 261 304 373
#
# _framework density 26.214247
#
# number of rings (size 3 to 8) (size 9 to 14) (size 15 to 20)
#    0.000    2.133    1.333    0.400    7.467    2.133 
#    0.000    2.667    0.000    0.000    0.000    0.000 
#    0.000    0.000    0.000    0.000    0.000    0.000 
#
# Total GULP energy -83625.880302 kJ/mol
# GULP energy per Si atom -5575.058687 kJ/mol
# Density = 2.615458 g / cm^3
# Si number density = 26.214247 Si / 1000 Ang^3
#
#
#
# Elastic Constant Matrix: (Units=GPa)
#
#
# Indices 1 2 3 4 5 6 
#
# 1 51.3005 -2.2222 10.8114 14.4010 -9.3210 -2.9551
# 2 -2.2222 204.9767 10.1851 13.6402 -16.3085 13.4694
# 3 10.8114 10.1851 63.1752 4.6219 -19.7089 -4.5713
# 4 14.4010 13.6402 4.6219 28.9550 -2.6975 -13.1043
# 5 -9.3210 -16.3085 -19.7089 -2.6975 32.5109 8.1773
# 6 -2.9551 13.4694 -4.5713 -13.1043 8.1773 40.2359
#
#
#
# Elastic Compliance Matrix: (Units=1/GPa)
#
#
# Indices 1 2 3 4 5 6 
#
# 1 0.025273 0.002342 -0.001628 -0.015251 0.007582 -0.005621
# 2 0.002342 0.005916 0.000090 -0.005600 0.004363 -0.004509
# 3 -0.001628 0.000090 0.019788 -0.001675 0.011640 -0.000813
# 4 -0.015251 -0.005600 -0.001675 0.053099 -0.008729 0.019632
# 5 0.007582 0.004363 0.011640 -0.008729 0.044329 -0.011433
# 6 -0.005621 -0.004509 -0.000813 0.019632 -0.011433 0.034575
#
#
# Mechanical properties :
#
#
# Convention : Reuss Voigt Hill
#
# Bulk Modulus (GPa) = 19.01697 39.66677 29.34187
# Shear Modulus (GPa) = 25.13838 40.38557 32.76198
#
# Velocity S-wave (km/s) = 3.10007 3.92930 3.53905
# Velocity P-wave (km/s) = 4.48152 5.97917 5.28368
#
# Compressibility (1/GPa) = 0.05258462
#
# Stress axis : x y z
#
# Youngs Moduli (GPa) = 39.56861 169.04506 50.53523
#
# Poissons Ratio (x) = -0.39596 0.08228
# Poissons Ratio (y) = -0.09268 -0.00455
# Poissons Ratio (z) = 0.06443 -0.01522
#
# Static dielectric constant tensor:
#      x y z
#    x 1.950940 0.331110 -0.032070 
#    y 0.331110 1.702260 0.140580 
#    z -0.032070 0.140580 2.058100 
# 
# From -- ./inp_files/414872.got.cif
#   From: 2010.05.17/outbox.cif.g08.bks.cpg/sg2_208_cif.got.tgz:414872.got - 2010.06.03 11:33:40.
