data_PCOD9007103
_publ_section_title
;
Structure prediction by ZEFSAII (Michael W. Deem and Ramdas Pophale) SiO2 
 PCOD9007103
Probable space group: P -1
;
_chemical_formula_sum "Si O2"
_cell_formula_units_Z 16
_cell_length_a 19.935215
_cell_length_b 14.544702
_cell_length_c 8.779083
_cell_angle_alpha 54.588233
_cell_angle_beta 124.705528
_cell_angle_gamma 158.496028
_cell_volume 756.575263
_symmetry_space_group_name_H-M "P -1"
_symmetry_group_IT_number 2
_symmetry_cell_setting 'triclinic'
loop_
_space_group_symop_operation_xyz
x,y,z
-x,-y,-z
loop_
_atom_site_type_symbol
_atom_site_label
_atom_site_fract_x
_atom_site_fract_y
_atom_site_fract_z
Si Si1 0.178282 0.903213 0.901284
Si Si2 0.703131 0.740271 0.470718
Si Si3 0.489973 0.091630 0.109348
Si Si4 0.644969 0.778095 0.878944
Si Si5 0.757432 0.403013 0.864809
Si Si6 0.829196 0.718561 0.477131
Si Si7 0.188915 0.194385 0.130841
Si Si8 0.356755 0.581499 0.763536
O O1 0.963744 0.604426 0.934737
O O2 0.203808 0.026648 0.680134
O O3 0.330613 0.992896 0.987985
O O4 0.229487 0.036407 0.992005
O O5 0.500000 0.500000 0.500000
O O6 0.683313 0.637051 0.395822
O O7 0.802620 0.802080 0.681367
O O8 0.594978 0.242909 0.259609
O O9 0.375431 0.835412 0.185263
O O10 0.646594 0.281759 0.996888
O O11 0.762269 0.868549 0.809928
O O12 0.533116 0.754681 0.732981
O O13 0.500000 0.500000 0.000000
O O14 0.788794 0.564572 0.681112
O O15 0.808617 0.643863 0.352275
O O16 0.000000 0.000000 0.500000
O O17 0.328298 0.460151 0.986061
O O18 0.000000 0.000000 0.000000
#
# Coordination Sequence:
#
# PCOD9007103 Si02
#       8
#     2   2   2   2   2   2   2   2
#     4  11  22  40  66  90 129 169 216 263 318 384
#     4  12  22  36  60  93 130 168 207 261 325 391
#     4  10  24  45  66  93 123 176 223 263 315 376
#     4   9  19  35  54  83 121 168 202 253 319 381
#     4  11  24  42  67  94 130 166 222 268 313 384
#     4  12  23  38  62  97 127 162 208 267 330 384
#     4  11  22  32  55  91 129 163 203 260 321 387
#     4  10  21  39  60  82 127 167 209 258 317 387
#
# _framework density 21.147929000000001
#
# number of rings (size 3 to 8) (size 9 to 14) (size 15 to 20)
#    0.000    1.250    1.250    7.125    3.500    0.500 
#    0.000    0.000    0.000    0.000    0.000   10.500 
#    0.000    0.000    0.000    0.000    0.000    0.000 
#
# Total GULP energy -89153.476662 kJ/mol
# GULP energy per Si atom -5572.092291 kJ/mol
# Density = 2.109979 g / cm^3
# Si number density = 21.147929 Si / 1000 Ang^3
#
#
#
# Elastic Constant Matrix: (Units=GPa)
#
#
# Indices 1 2 3 4 5 6 
#
# 1 115.0975 53.9891 13.4637 1.4418 -21.0807 -11.1877
# 2 53.9891 152.5237 40.2287 6.2779 -18.3817 -14.3790
# 3 13.4637 40.2287 57.9974 9.0083 -12.8206 -9.2381
# 4 1.4418 6.2779 9.0083 30.5653 -6.6207 -4.0431
# 5 -21.0807 -18.3817 -12.8206 -6.6207 30.0164 5.5156
# 6 -11.1877 -14.3790 -9.2381 -4.0431 5.5156 47.0141
#
#
#
# Elastic Compliance Matrix: (Units=1/GPa)
#
#
# Indices 1 2 3 4 5 6 
#
# 1 0.011506 -0.003548 0.001208 0.001404 0.006505 0.001248
# 2 -0.003548 0.009416 -0.005401 0.000123 0.000831 0.000887
# 3 0.001208 -0.005401 0.023028 -0.004141 0.006079 0.002091
# 4 0.001404 0.000123 -0.004141 0.035560 0.006802 0.001818
# 5 0.006505 0.000831 0.006079 0.006802 0.042753 -0.001434
# 6 0.001248 0.000887 0.002091 0.001818 -0.001434 0.022574
#
#
# Mechanical properties :
#
#
# Convention : Reuss Voigt Hill
#
# Bulk Modulus (GPa) = 35.12630 60.10904 47.61767
# Shear Modulus (GPa) = 29.44513 36.04831 32.74672
#
# Velocity S-wave (km/s) = 3.73546 4.13313 3.93932
# Velocity P-wave (km/s) = 5.93723 7.15974 6.57695
#
# Compressibility (1/GPa) = 0.02846870
#
# Stress axis : x y z
#
# Youngs Moduli (GPa) = 86.90972 106.20711 43.42486
#
# Poissons Ratio (x) = 0.37680 -0.05248
# Poissons Ratio (y) = 0.30834 0.23455
# Poissons Ratio (z) = -0.10502 0.57366
#
# Static dielectric constant tensor:
#      x y z
#    x 1.893070 0.158590 0.028020 
#    y 0.158590 2.062890 0.065930 
#    z 0.028020 0.065930 1.757840 
# 
# From -- ./inp_files/347202.got.cif
#   From: 2010.05.17/outbox.cif.g08.bks.cpg/sg2_174_cif.got.tgz:347202.got - 2010.06.03 11:33:40.
