data_PCOD9007894
_publ_section_title
;
Structure prediction by ZEFSAII (Michael W. Deem and Ramdas Pophale) SiO2 
 PCOD9007894
Probable space group: P -1
;
_chemical_formula_sum "Si O2"
_cell_formula_units_Z 14
_cell_length_a 9.361356
_cell_length_b 11.395796
_cell_length_c 11.678822
_cell_angle_alpha 31.275469
_cell_angle_beta 71.682071
_cell_angle_gamma 75.726547
_cell_volume 613.420325
_symmetry_space_group_name_H-M "P -1"
_symmetry_group_IT_number 2
_symmetry_cell_setting 'triclinic'
loop_
_space_group_symop_operation_xyz
x,y,z
-x,-y,-z
loop_
_atom_site_type_symbol
_atom_site_label
_atom_site_fract_x
_atom_site_fract_y
_atom_site_fract_z
Si Si1 0.026970 0.578488 0.591904
Si Si2 0.415099 0.178512 0.800899
Si Si3 0.096864 0.669710 0.973566
Si Si4 0.350716 0.891745 0.571040
Si Si5 0.116452 0.171464 0.764915
Si Si6 0.876562 0.824636 0.732460
Si Si7 0.667926 0.408210 0.382167
O O1 0.111011 0.427714 0.603187
O O2 0.162309 0.661812 0.572087
O O3 0.938226 0.780776 0.389837
O O4 0.916124 0.396081 0.835952
O O5 0.281245 0.096183 0.818163
O O6 0.542495 0.292632 0.592561
O O7 0.344555 0.335261 0.786540
O O8 0.500000 0.000000 0.000000
O O9 0.231825 0.823794 0.758089
O O10 0.939550 0.772328 0.886443
O O11 0.113947 0.420709 0.123017
O O12 0.368301 0.668263 0.674240
O O13 0.500000 0.000000 0.500000
O O14 0.279540 0.069264 0.351667
O O15 0.000000 0.000000 0.000000
O O16 0.000000 0.000000 0.500000
#
# Coordination Sequence:
#
# PCOD9007894 Si02
#       7
#     2   2   2   2   2   2   2
#     4  10  21  39  63  90 122 162 208 263 319 376
#     4  10  22  41  67  93 123 167 207 259 328 383
#     4  10  21  39  63  90 124 167 214 266 319 382
#     4  11  25  42  62  94 132 175 220 265 323 387
#     4  10  22  38  61  94 124 157 208 262 317 382
#     4   9  19  37  61  89 118 160 214 257 312 380
#     4  10  22  41  63  90 127 164 213 263 314 386
#
# _framework density 22.822849999999999
#
# number of rings (size 3 to 8) (size 9 to 14) (size 15 to 20)
#    0.000    2.000    0.000    3.429    0.000   10.857 
#    0.000    1.429    0.000    0.000    0.000    0.000 
#    0.000    0.000    0.000    0.000    0.000    0.000 
#
# Total GULP energy -78129.733442 kJ/mol
# GULP energy per Si atom -5580.695246 kJ/mol
# Density = 2.277090 g / cm^3
# Si number density = 22.822850 Si / 1000 Ang^3
#
#
#
# Elastic Constant Matrix: (Units=GPa)
#
#
# Indices 1 2 3 4 5 6 
#
# 1 174.4069 37.5086 77.1969 2.3493 10.1661 9.4553
# 2 37.5086 87.4005 8.0112 1.2439 0.9519 7.1776
# 3 77.1969 8.0112 111.1964 17.6201 19.8142 -1.4472
# 4 2.3493 1.2439 17.6201 31.8080 -3.2829 -6.7964
# 5 10.1661 0.9519 19.8142 -3.2829 42.3969 1.0417
# 6 9.4553 7.1776 -1.4472 -6.7964 1.0417 29.7758
#
#
#
# Elastic Compliance Matrix: (Units=1/GPa)
#
#
# Indices 1 2 3 4 5 6 
#
# 1 0.009638 -0.003376 -0.007230 0.003162 0.001436 -0.001927
# 2 -0.003376 0.012955 0.001722 -0.001752 -0.000364 -0.002354
# 3 -0.007230 0.001722 0.016572 -0.009240 -0.006785 0.000815
# 4 0.003162 -0.001752 -0.009240 0.038671 0.006408 0.007572
# 5 0.001436 -0.000364 -0.006785 0.006408 0.026922 -0.000177
# 6 -0.001927 -0.002354 0.000815 0.007572 -0.000177 0.036538
#
#
# Mechanical properties :
#
#
# Convention : Reuss Voigt Hill
#
# Bulk Modulus (GPa) = 46.73370 68.71524 57.72447
# Shear Modulus (GPa) = 30.08502 37.48195 33.78348
#
# Velocity S-wave (km/s) = 3.63464 4.05693 3.85157
# Velocity P-wave (km/s) = 6.17538 7.21930 6.71765
#
# Compressibility (1/GPa) = 0.02139783
#
# Stress axis : x y z
#
# Youngs Moduli (GPa) = 103.75575 77.19165 60.34262
#
# Poissons Ratio (x) = 0.26060 0.43626
# Poissons Ratio (y) = 0.35027 -0.10392
# Poissons Ratio (z) = 0.75013 -0.13294
#
# Static dielectric constant tensor:
#      x y z
#    x 1.856400 0.036930 0.025530 
#    y 0.036930 1.993620 -0.011430 
#    z 0.025530 -0.011430 1.865550 
# 
# From -- ./inp_files/391787.got.cif
#   From: 2010.05.17/outbox.cif.g08.bks.cpg/sg2_196_cif.got.tgz:391787.got - 2010.06.03 11:33:40.
