data_PCOD9007890
_publ_section_title
;
Structure prediction by ZEFSAII (Michael W. Deem and Ramdas Pophale) SiO2 
 PCOD9007890
Probable space group: P -1
;
_chemical_formula_sum "Si O2"
_cell_formula_units_Z 16
_cell_length_a 19.843640
_cell_length_b 8.840254
_cell_length_c 14.570309
_cell_angle_alpha 37.602788
_cell_angle_beta 147.855443
_cell_angle_gamma 141.938837
_cell_volume 774.494332
_symmetry_space_group_name_H-M "P -1"
_symmetry_group_IT_number 2
_symmetry_cell_setting 'triclinic'
loop_
_space_group_symop_operation_xyz
x,y,z
-x,-y,-z
loop_
_atom_site_type_symbol
_atom_site_label
_atom_site_fract_x
_atom_site_fract_y
_atom_site_fract_z
Si Si1 0.157984 0.109401 0.239605
Si Si2 0.461015 0.823961 0.876544
Si Si3 0.640227 0.475611 0.285868
Si Si4 0.087986 0.755791 0.166545
Si Si5 0.208205 0.943695 0.573971
Si Si6 0.391074 0.639279 0.298628
Si Si7 0.697401 0.426066 0.576837
Si Si8 0.034333 0.274652 0.462201
O O1 0.254121 0.412023 0.218026
O O2 0.184603 0.973528 0.243493
O O3 0.176544 0.952706 0.425204
O O4 0.007732 0.112863 0.054723
O O5 0.413857 0.713050 0.772931
O O6 0.328305 0.825355 0.777711
O O7 0.558138 0.125495 0.827386
O O8 0.550988 0.663801 0.095784
O O9 0.628639 0.352782 0.433356
O O10 0.802450 0.623988 0.383222
O O11 0.167183 0.641505 0.242063
O O12 0.010625 0.503957 0.263392
O O13 0.069820 0.789300 0.542485
O O14 0.264426 0.255441 0.519641
O O15 0.500000 0.500000 0.500000
O O16 0.376393 0.720496 0.347145
O O17 0.000000 0.000000 0.500000
#
# Coordination Sequence:
#
# PCOD9007890 Si02
#       8
#     2   2   2   2   2   2   2   2
#     4  10  23  40  63  89 127 158 197 255 306 361
#     4  11  24  43  62  91 129 163 202 253 308 367
#     4  10  24  43  63  91 127 162 202 258 305 362
#     4  10  22  42  62  93 124 154 203 256 306 358
#     4  11  21  40  64  94 122 162 207 251 308 362
#     4  11  23  40  61  88 119 167 202 242 307 362
#     4  10  21  39  63  90 120 159 204 251 301 360
#     4  11  22  40  65  91 120 162 207 253 307 359
#
# _framework density 20.658640999999999
#
# number of rings (size 3 to 8) (size 9 to 14) (size 15 to 20)
#    0.000    1.500    5.000    1.500    1.750    6.000 
#    2.250    2.500    0.000    0.000    0.000    0.000 
#    0.000    0.000    0.000    0.000    0.000    0.000 
#
# Total GULP energy -89309.359462 kJ/mol
# GULP energy per Si atom -5581.834966 kJ/mol
# Density = 2.061162 g / cm^3
# Si number density = 20.658641 Si / 1000 Ang^3
#
#
#
# Elastic Constant Matrix: (Units=GPa)
#
#
# Indices 1 2 3 4 5 6 
#
# 1 92.5750 16.9120 32.5823 8.7440 29.3505 3.5966
# 2 16.9120 34.5485 3.8549 1.0762 -1.6072 0.9292
# 3 32.5823 3.8549 81.2683 -5.7879 22.1358 -0.7663
# 4 8.7440 1.0762 -5.7879 24.3579 -11.0411 6.5970
# 5 29.3505 -1.6072 22.1358 -11.0411 26.5512 -6.2400
# 6 3.5966 0.9292 -0.7663 6.5970 -6.2400 26.1956
#
#
#
# Elastic Compliance Matrix: (Units=1/GPa)
#
#
# Indices 1 2 3 4 5 6 
#
# 1 0.037409 -0.019624 -0.000524 -0.037266 -0.059790 -0.009313
# 2 -0.019624 0.039689 -0.002134 0.019399 0.035043 0.004686
# 3 -0.000524 -0.002134 0.016429 -0.001757 -0.014540 -0.002393
# 4 -0.037266 0.019399 -0.001757 0.089752 0.081432 0.001172
# 5 -0.059790 0.035043 -0.014540 0.081432 0.157392 0.023525
# 6 -0.009313 0.004686 -0.002393 0.001172 0.023525 0.044526
#
#
# Mechanical properties :
#
#
# Convention : Reuss Voigt Hill
#
# Bulk Modulus (GPa) = 20.42338 35.01004 27.71671
# Shear Modulus (GPa) = 11.20870 25.75711 18.48290
#
# Velocity S-wave (km/s) = 2.33183 3.53483 2.99437
# Velocity P-wave (km/s) = 4.14216 5.80032 5.03990
#
# Compressibility (1/GPa) = 0.04896348
#
# Stress axis : x y z
#
# Youngs Moduli (GPa) = 26.73128 25.19582 60.86872
#
# Poissons Ratio (x) = 0.49445 0.03187
# Poissons Ratio (y) = 0.52458 0.12990
# Poissons Ratio (z) = 0.01400 0.05377
#
# Static dielectric constant tensor:
#      x y z
#    x 1.764420 -0.011060 0.002540 
#    y -0.011060 1.729260 -0.000180 
#    z 0.002540 -0.000180 1.725230 
# 
# From -- ./inp_files/276209.got.cif
#   From: 2010.05.17/outbox.cif.g08.bks.cpg/sg2_139_cif.got.tgz:276209.got - 2010.06.03 11:33:40.
