data_PCOD9007539
_publ_section_title
;
Structure prediction by ZEFSAII (Michael W. Deem and Ramdas Pophale) SiO2 
 PCOD9007539
Probable space group: P -1
;
_chemical_formula_sum "Si O2"
_cell_formula_units_Z 10
_cell_length_a 4.769420
_cell_length_b 5.430904
_cell_length_c 19.506774
_cell_angle_alpha 52.821227
_cell_angle_beta 99.065413
_cell_angle_gamma 95.200334
_cell_volume 397.540225
_symmetry_space_group_name_H-M "P -1"
_symmetry_group_IT_number 2
_symmetry_cell_setting 'triclinic'
loop_
_space_group_symop_operation_xyz
x,y,z
-x,-y,-z
loop_
_atom_site_type_symbol
_atom_site_label
_atom_site_fract_x
_atom_site_fract_y
_atom_site_fract_z
Si Si1 0.577483 0.345814 0.917326
Si Si2 0.936761 0.358853 0.080252
Si Si3 0.814171 0.846798 0.618432
Si Si4 0.971729 0.657987 0.183076
Si Si5 0.276650 0.229048 0.528492
O O1 0.364134 0.599352 0.902619
O O2 0.367409 0.336043 0.840379
O O3 0.833342 0.386819 0.986884
O O4 0.500000 0.000000 0.000000
O O5 0.115803 0.557406 0.130804
O O6 0.053804 0.009482 0.145613
O O7 0.840141 0.747927 0.556937
O O8 0.920540 0.587482 0.717278
O O9 0.484091 0.932249 0.597684
O O10 0.013066 0.152459 0.580281
O O11 0.500000 0.500000 0.500000
#
# Coordination Sequence:
#
# PCOD9007539 Si02
#       5
#     2   2   2   2   2
#     4  10  24  40  62  93 122 166 212 252 318 372
#     4  11  24  42  65  94 126 166 212 256 312 374
#     4  10  22  38  59  90 120 160 209 251 310 368
#     4  11  23  41  62  91 132 163 206 268 306 367
#     4  10  21  39  62  87 120 160 205 256 306 369
#
# _framework density 25.154686000000002
#
# number of rings (size 3 to 8) (size 9 to 14) (size 15 to 20)
#    0.000    1.600    0.000    3.600    0.000    9.600 
#    0.000    4.000    0.000    0.000    0.000    0.000 
#    0.000    0.000    0.000    0.000    0.000    0.000 
#
# Total GULP energy -55758.426194 kJ/mol
# GULP energy per Si atom -5575.842619 kJ/mol
# Density = 2.509743 g / cm^3
# Si number density = 25.154686 Si / 1000 Ang^3
#
#
#
# Elastic Constant Matrix: (Units=GPa)
#
#
# Indices 1 2 3 4 5 6 
#
# 1 172.8088 52.3131 77.2266 3.9984 4.0209 35.9853
# 2 52.3131 135.9182 48.5100 -18.9735 -3.3318 32.5951
# 3 77.2266 48.5100 196.0742 7.9930 28.5344 12.4485
# 4 3.9984 -18.9735 7.9930 25.5875 12.2046 3.4961
# 5 4.0209 -3.3318 28.5344 12.2046 35.5571 0.5651
# 6 35.9853 32.5951 12.4485 3.4961 0.5651 65.3983
#
#
#
# Elastic Compliance Matrix: (Units=1/GPa)
#
#
# Indices 1 2 3 4 5 6 
#
# 1 0.008188 -0.001671 -0.002817 -0.002163 0.001969 -0.003038
# 2 -0.001671 0.011377 -0.002204 0.010251 -0.000417 -0.004876
# 3 -0.002817 -0.002204 0.007527 -0.001062 -0.005585 0.001321
# 4 -0.002163 0.010251 -0.001062 0.056466 -0.017219 -0.006587
# 5 0.001969 -0.000417 -0.005585 -0.017219 0.038242 0.000778
# 6 -0.003038 -0.004876 0.001321 -0.006587 0.000778 0.019487
#
#
# Mechanical properties :
#
#
# Convention : Reuss Voigt Hill
#
# Bulk Modulus (GPa) = 72.95111 95.65562 84.30336
# Shear Modulus (GPa) = 31.39874 47.09202 39.24538
#
# Velocity S-wave (km/s) = 3.53686 4.33147 3.95417
# Velocity P-wave (km/s) = 6.76336 7.94512 7.37794
#
# Compressibility (1/GPa) = 0.01370781
#
# Stress axis : x y z
#
# Youngs Moduli (GPa) = 122.12301 87.89314 132.85140
#
# Poissons Ratio (x) = 0.14690 0.37426
# Poissons Ratio (y) = 0.20411 0.29283
# Poissons Ratio (z) = 0.34404 0.19373
#
# Static dielectric constant tensor:
#      x y z
#    x 1.998450 0.006490 0.039230 
#    y 0.006490 2.458520 0.000940 
#    z 0.039230 0.000940 1.931410 
# 
# From -- ./inp_files/2773.got.cif
#   From: 2010.05.17/outbox.cif.g08.bks.cpg/sg2_2_cif.got.tgz:2773.got - 2010.06.03 11:33:40.
