data_PCOD9007329
_publ_section_title
;
Structure prediction by ZEFSAII (Michael W. Deem and Ramdas Pophale) SiO2 
 PCOD9007329
Probable space group: P -1
;
_chemical_formula_sum "Si O2"
_cell_formula_units_Z 16
_cell_length_a 22.791686
_cell_length_b 6.315306
_cell_length_c 9.120124
_cell_angle_alpha 73.733666
_cell_angle_beta 47.799780
_cell_angle_gamma 51.382504
_cell_volume 737.537730
_symmetry_space_group_name_H-M "P -1"
_symmetry_group_IT_number 2
_symmetry_cell_setting 'triclinic'
loop_
_space_group_symop_operation_xyz
x,y,z
-x,-y,-z
loop_
_atom_site_type_symbol
_atom_site_label
_atom_site_fract_x
_atom_site_fract_y
_atom_site_fract_z
Si Si1 0.134415 0.183403 0.468767
Si Si2 0.238470 0.201553 0.547878
Si Si3 0.539570 0.976927 0.777401
Si Si4 0.044849 0.159171 0.342055
Si Si5 0.500146 0.235756 0.373875
Si Si6 0.192152 0.862308 0.897891
Si Si7 0.109494 0.795848 0.784528
Si Si8 0.612770 0.424780 0.235914
O O1 0.225495 0.142930 0.412126
O O2 0.129069 0.107038 0.325337
O O3 0.043299 0.511117 0.571410
O O4 0.116126 0.997889 0.632045
O O5 0.149867 0.523780 0.675380
O O6 0.347367 0.125108 0.398668
O O7 0.220099 0.033656 0.725912
O O8 0.461414 0.286888 0.781107
O O9 0.532068 0.766589 0.734321
O O10 0.500000 0.000000 0.000000
O O11 0.000000 0.000000 0.500000
O O12 0.091029 0.061358 0.121802
O O13 0.601921 0.200599 0.228497
O O14 0.424587 0.510418 0.544242
O O15 0.500000 0.000000 0.500000
O O16 0.182295 0.693034 0.823825
O O17 0.276518 0.673307 0.914052
O O18 0.000000 0.000000 0.000000
#
# Coordination Sequence:
#
# PCOD9007329 Si02
#       8
#     2   2   2   2   2   2   2   2
#     4  10  23  40  61  89 126 162 201 249 308 368
#     4  11  23  41  63  91 123 161 208 253 303 367
#     4  11  25  41  61  90 126 164 203 252 310 364
#     4  11  23  41  62  91 127 162 200 252 308 364
#     4   9  18  37  61  83 115 155 197 247 298 351
#     4  11  23  38  65  93 117 159 210 252 304 365
#     4  11  22  40  65  92 125 162 203 255 308 363
#     4  10  21  39  61  88 121 158 205 255 300 358
#
# _framework density 21.693805000000001
#
# number of rings (size 3 to 8) (size 9 to 14) (size 15 to 20)
#    0.000    1.500    0.000    6.000    0.000    8.500 
#    0.000    0.000    0.000    0.000    0.000    0.000 
#    0.000    0.000    0.000    0.000    0.000    0.000 
#
# Total GULP energy -89290.399495 kJ/mol
# GULP energy per Si atom -5580.649968 kJ/mol
# Density = 2.164443 g / cm^3
# Si number density = 21.693805 Si / 1000 Ang^3
#
#
#
# Elastic Constant Matrix: (Units=GPa)
#
#
# Indices 1 2 3 4 5 6 
#
# 1 155.1665 28.3894 32.0205 1.7133 17.4187 12.1162
# 2 28.3894 71.2314 3.9756 -1.0042 0.7036 -4.4293
# 3 32.0205 3.9756 75.6188 3.2481 19.0807 1.6581
# 4 1.7133 -1.0042 3.2481 15.2009 -2.2298 1.4553
# 5 17.4187 0.7036 19.0807 -2.2298 37.7533 8.8490
# 6 12.1162 -4.4293 1.6581 1.4553 8.8490 34.2767
#
#
#
# Elastic Compliance Matrix: (Units=1/GPa)
#
#
# Indices 1 2 3 4 5 6 
#
# 1 0.007988 -0.003188 -0.002715 -0.000521 -0.001663 -0.002653
# 2 -0.003188 0.015487 0.000327 0.001085 0.000386 0.002967
# 3 -0.002715 0.000327 0.016504 -0.004598 -0.007940 0.002449
# 4 -0.000521 0.001085 -0.004598 0.068427 0.007598 -0.004320
# 5 -0.001663 0.000386 -0.007940 0.007598 0.033578 -0.007969
# 6 -0.002653 0.002967 0.002449 -0.004320 -0.007969 0.032618
#
#
# Mechanical properties :
#
#
# Convention : Reuss Voigt Hill
#
# Bulk Modulus (GPa) = 34.68975 47.86532 41.27754
# Shear Modulus (GPa) = 25.59362 33.28826 29.44094
#
# Velocity S-wave (km/s) = 3.43850 3.92147 3.68790
# Velocity P-wave (km/s) = 5.63824 6.52808 6.09941
#
# Compressibility (1/GPa) = 0.02882696
#
# Stress axis : x y z
#
# Youngs Moduli (GPa) = 125.19230 64.57025 60.59170
#
# Poissons Ratio (x) = 0.20584 0.16448
# Poissons Ratio (y) = 0.39910 -0.01979
# Poissons Ratio (z) = 0.33985 -0.02109
#
# Static dielectric constant tensor:
#      x y z
#    x 1.927770 0.004640 0.005400 
#    y 0.004640 1.787970 0.033700 
#    z 0.005400 0.033700 1.834890 
# 
# From -- ./inp_files/38978.got.cif
#   From: 2010.05.17/outbox.cif.g08.bks.cpg/sg2_20_cif.got.tgz:38978.got - 2010.06.03 11:33:40.
