data_PCOD9007067
_publ_section_title
;
Structure prediction by ZEFSAII (Michael W. Deem and Ramdas Pophale) SiO2 
 PCOD9007067
Probable space group: P -1
;
_chemical_formula_sum "Si O2"
_cell_formula_units_Z 16
_cell_length_a 9.054759
_cell_length_b 8.656148
_cell_length_c 11.356423
_cell_angle_alpha 111.059821
_cell_angle_beta 75.512815
_cell_angle_gamma 113.110533
_cell_volume 757.794955
_symmetry_space_group_name_H-M "P -1"
_symmetry_group_IT_number 2
_symmetry_cell_setting 'triclinic'
loop_
_space_group_symop_operation_xyz
x,y,z
-x,-y,-z
loop_
_atom_site_type_symbol
_atom_site_label
_atom_site_fract_x
_atom_site_fract_y
_atom_site_fract_z
Si Si1 0.037579 0.302475 0.374533
Si Si2 0.599919 0.264650 0.748613
Si Si3 0.720219 0.863382 0.099868
Si Si4 0.004247 0.242397 0.889242
Si Si5 0.744617 0.889936 0.834042
Si Si6 0.272257 0.659792 0.509166
Si Si7 0.454780 0.878717 0.742282
Si Si8 0.946261 0.510774 0.825245
O O1 0.858360 0.235916 0.447382
O O2 0.139125 0.177541 0.289287
O O3 0.155950 0.458187 0.472864
O O4 0.010207 0.387456 0.278250
O O5 0.439471 0.272975 0.847020
O O6 0.618265 0.311824 0.620836
O O7 0.758569 0.391479 0.814961
O O8 0.575488 0.057028 0.706481
O O9 0.872351 0.863953 0.146211
O O10 0.683056 0.046886 0.160454
O O11 0.745061 0.823479 0.948911
O O12 0.034921 0.372838 0.807911
O O13 0.826150 0.100096 0.879061
O O14 0.024781 0.357780 0.034872
O O15 0.562614 0.831506 0.806512
O O16 0.377724 0.729093 0.622078
#
# Coordination Sequence:
#
# PCOD9007067 Si02
#       8
#     2   2   2   2   2   2   2   2
#     4  10  23  41  68  89 124 158 213 261 300 361
#     4   9  21  41  60  88 127 161 201 252 307 362
#     4  10  22  37  64  94 126 165 196 258 310 374
#     4  11  21  37  62  90 128 159 206 241 314 374
#     4  12  22  41  61 100 123 161 206 255 312 372
#     4  10  21  44  65  85 121 172 208 252 308 355
#     4  10  22  38  64  90 129 163 200 254 309 368
#     4  10  21  39  59  91 127 162 195 259 302 366
#
# _framework density 21.113890000000001
#
# number of rings (size 3 to 8) (size 9 to 14) (size 15 to 20)
#    0.750    1.000    2.500    1.875    1.750    1.000 
#    2.250    4.375    0.000    0.000    0.000    0.000 
#    0.000    0.000    0.000    0.000    0.000    0.000 
#
# Total GULP energy -89241.696619 kJ/mol
# GULP energy per Si atom -5577.606039 kJ/mol
# Density = 2.106583 g / cm^3
# Si number density = 21.113890 Si / 1000 Ang^3
#
#
#
# Elastic Constant Matrix: (Units=GPa)
#
#
# Indices 1 2 3 4 5 6 
#
# 1 82.4731 16.0951 21.1131 14.7343 20.3299 -4.4135
# 2 16.0951 35.6577 14.2257 7.3113 10.8184 4.2221
# 3 21.1131 14.2257 60.5290 30.8439 11.4303 9.2677
# 4 14.7343 7.3113 30.8439 25.1567 10.3448 3.5312
# 5 20.3299 10.8184 11.4303 10.3448 38.7379 2.8259
# 6 -4.4135 4.2221 9.2677 3.5312 2.8259 33.5065
#
#
#
# Elastic Compliance Matrix: (Units=1/GPa)
#
#
# Indices 1 2 3 4 5 6 
#
# 1 0.015804 -0.004231 -0.002355 -0.003317 -0.005831 0.004108
# 2 -0.004231 0.034115 -0.007059 0.004132 -0.006121 -0.002823
# 3 -0.002355 -0.007059 0.047782 -0.056042 0.004594 -0.007118
# 4 -0.003317 0.004132 -0.056042 0.114314 -0.013670 0.003649
# 5 -0.005831 -0.006121 0.004594 -0.013670 0.033070 -0.002616
# 6 0.004108 -0.002823 -0.007118 0.003649 -0.002616 0.032547
#
#
# Mechanical properties :
#
#
# Convention : Reuss Voigt Hill
#
# Bulk Modulus (GPa) = 14.20275 31.28085 22.74180
# Shear Modulus (GPa) = 15.22573 27.96194 21.59383
#
# Velocity S-wave (km/s) = 2.68829 3.64309 3.20149
# Velocity P-wave (km/s) = 4.04687 5.70470 4.94575
#
# Compressibility (1/GPa) = 0.07040889
#
# Stress axis : x y z
#
# Youngs Moduli (GPa) = 63.27619 29.31286 20.92852
#
# Poissons Ratio (x) = 0.12402 0.04930
# Poissons Ratio (y) = 0.26771 0.14774
# Poissons Ratio (z) = 0.14905 0.20693
#
# Static dielectric constant tensor:
#      x y z
#    x 1.774390 -0.025640 -0.033220 
#    y -0.025640 1.807310 0.018230 
#    z -0.033220 0.018230 1.756610 
# 
# From -- ./inp_files/379933.got.cif
#   From: 2010.05.17/outbox.cif.g08.bks.cpg/sg2_190_cif.got.tgz:379933.got - 2010.06.03 11:33:40.
