data_PCOD9008645
_publ_section_title
;
Structure prediction by ZEFSAII (Michael W. Deem and Ramdas Pophale) SiO2 
 PCOD9008645
Probable space group: P -1
;
_chemical_formula_sum "Si O2"
_cell_formula_units_Z 16
_cell_length_a 23.126083
_cell_length_b 8.937832
_cell_length_c 20.216394
_cell_angle_alpha 70.565566
_cell_angle_beta 169.081130
_cell_angle_gamma 110.667641
_cell_volume 738.321287
_symmetry_space_group_name_H-M "P -1"
_symmetry_group_IT_number 2
_symmetry_cell_setting 'triclinic'
loop_
_space_group_symop_operation_xyz
x,y,z
-x,-y,-z
loop_
_atom_site_type_symbol
_atom_site_label
_atom_site_fract_x
_atom_site_fract_y
_atom_site_fract_z
Si Si1 0.277443 0.808505 0.044457
Si Si2 0.458333 0.323596 0.512399
Si Si3 0.873136 0.212406 0.265543
Si Si4 0.580891 0.896548 0.044702
Si Si5 0.170514 0.679288 0.521707
Si Si6 0.281017 0.516656 0.867244
Si Si7 0.824702 0.107213 0.869761
Si Si8 0.899855 0.024873 0.680527
O O1 0.417935 0.688300 0.270855
O O2 0.565975 0.922875 0.321767
O O3 0.110629 0.737651 0.800379
O O4 0.090404 0.926403 0.858735
O O5 0.500000 0.500000 0.500000
O O6 0.700783 0.238602 0.756492
O O7 0.114203 0.211796 0.139140
O O8 0.666284 0.306812 0.066868
O O9 0.203336 0.229049 0.669818
O O10 0.758808 0.022065 0.173892
O O11 0.287900 0.802426 0.694148
O O12 0.500000 0.000000 0.000000
O O13 0.857964 0.581755 0.210424
O O14 0.115690 0.793899 0.383270
O O15 0.430354 0.565171 0.820016
O O16 0.000000 0.500000 0.500000
O O17 0.500000 0.000000 0.500000
O O18 0.978474 0.988082 0.106871
#
# Coordination Sequence:
#
# PCOD9008645 Si02
#       8
#     2   2   2   2   2   2   2   2
#     4  10  21  39  65  93 125 164 211 275 311 378
#     4  10  21  40  68  98 133 174 212 263 338 396
#     4  11  24  39  60  92 121 161 222 261 315 375
#     4  11  23  37  66  87 115 166 219 265 300 384
#     4  12  24  42  63  85 126 165 210 259 321 381
#     4  12  26  42  59  87 129 169 201 266 332 371
#     4  10  21  40  70  97 131 170 214 271 319 397
#     4  10  21  40  66  93 122 163 216 259 324 375
#
# _framework density 21.670783
#
# number of rings (size 3 to 8) (size 9 to 14) (size 15 to 20)
#    0.000    1.250    2.500    3.375    3.500    0.000 
#    2.250    0.000    0.000    0.000    0.000    0.000 
#    0.000    0.000    0.000    0.000    0.000    0.000 
#
# Total GULP energy -89230.166448 kJ/mol
# GULP energy per Si atom -5576.885403 kJ/mol
# Density = 2.162146 g / cm^3
# Si number density = 21.670783 Si / 1000 Ang^3
#
#
#
# Elastic Constant Matrix: (Units=GPa)
#
#
# Indices 1 2 3 4 5 6 
#
# 1 73.6944 37.7266 18.9423 -8.3235 8.2301 21.9847
# 2 37.7266 110.7940 21.8143 -14.2395 -5.8623 32.8949
# 3 18.9423 21.8143 73.7886 -2.8895 2.8136 15.9192
# 4 -8.3235 -14.2395 -2.8895 30.2810 4.3842 2.6516
# 5 8.2301 -5.8623 2.8136 4.3842 54.9073 -7.6814
# 6 21.9847 32.8949 15.9192 2.6516 -7.6814 45.1376
#
#
#
# Elastic Compliance Matrix: (Units=1/GPa)
#
#
# Indices 1 2 3 4 5 6 
#
# 1 0.019046 -0.003695 -0.001953 0.004567 -0.004483 -0.006926
# 2 -0.003695 0.013686 -0.001149 0.005946 0.000475 -0.008037
# 3 -0.001953 -0.001149 0.015311 0.000901 -0.001228 -0.003873
# 4 0.004567 0.005946 0.000901 0.038693 -0.004574 -0.009926
# 5 -0.004483 0.000475 -0.001228 -0.004574 0.020199 0.005977
# 6 -0.006926 -0.008037 -0.003873 -0.009926 0.005977 0.034352
#
#
# Mechanical properties :
#
#
# Convention : Reuss Voigt Hill
#
# Bulk Modulus (GPa) = 29.02783 46.13816 37.58300
# Shear Modulus (GPa) = 30.05498 38.05142 34.05320
#
# Velocity S-wave (km/s) = 3.72814 4.19488 3.96837
# Velocity P-wave (km/s) = 5.65296 6.69323 6.19497
#
# Compressibility (1/GPa) = 0.03444970
#
# Stress axis : x y z
#
# Youngs Moduli (GPa) = 52.50551 73.06971 65.31268
#
# Poissons Ratio (x) = 0.26996 0.12755
# Poissons Ratio (y) = 0.19398 0.07503
# Poissons Ratio (z) = 0.10254 0.08394
#
# Static dielectric constant tensor:
#      x y z
#    x 1.835680 0.055660 -0.020490 
#    y 0.055660 1.900020 0.071700 
#    z -0.020490 0.071700 1.883820 
# 
# From -- ./inp_files/105554.got.cif
#   From: 2010.05.17/outbox.cif.g08.bks.cpg/sg2_53_cif.got.tgz:105554.got - 2010.06.03 11:33:40.
