data_PCOD9008436
_publ_section_title
;
Structure prediction by ZEFSAII (Michael W. Deem and Ramdas Pophale) SiO2 
 PCOD9008436
Probable space group: P -1
;
_chemical_formula_sum "Si O2"
_cell_formula_units_Z 16
_cell_length_a 21.647848
_cell_length_b 16.317373
_cell_length_c 5.519984
_cell_angle_alpha 112.929712
_cell_angle_beta 124.969077
_cell_angle_gamma 24.856417
_cell_volume 621.622833
_symmetry_space_group_name_H-M "P -1"
_symmetry_group_IT_number 2
_symmetry_cell_setting 'triclinic'
loop_
_space_group_symop_operation_xyz
x,y,z
-x,-y,-z
loop_
_atom_site_type_symbol
_atom_site_label
_atom_site_fract_x
_atom_site_fract_y
_atom_site_fract_z
Si Si1 0.375926 0.281681 0.997263
Si Si2 0.034826 0.560730 0.440201
Si Si3 0.194287 0.762012 0.981880
Si Si4 0.481813 0.623146 0.021406
Si Si5 0.544565 0.055884 0.625485
Si Si6 0.225217 0.604039 0.252295
Si Si7 0.066209 0.327124 0.153664
Si Si8 0.905536 0.967458 0.239922
O O1 0.507982 0.139767 0.902032
O O2 0.241629 0.343839 0.725276
O O3 0.434099 0.208194 0.321307
O O4 0.265913 0.490835 0.002180
O O5 0.931366 0.711680 0.611700
O O6 0.978427 0.518782 0.223968
O O7 0.030259 0.611315 0.225280
O O8 0.397100 0.510502 0.100226
O O9 0.042264 0.872108 0.616303
O O10 0.180185 0.876076 0.978697
O O11 0.169529 0.760470 0.200626
O O12 0.599656 0.560858 0.387303
O O13 0.500000 0.500000 0.000000
O O14 0.273710 0.873510 0.843958
O O15 0.500000 0.000000 0.500000
O O16 0.741186 0.863593 0.747660
O O17 0.052191 0.753782 0.178332
#
# Coordination Sequence:
#
# PCOD9008436 Si02
#       8
#     2   2   2   2   2   2   2   2
#     4  12  27  43  67  97 138 176 216 284 351 391
#     4  10  21  39  64  97 127 163 212 275 334 390
#     4   9  19  37  65  93 125 167 217 273 318 394
#     4   9  20  39  64  95 127 171 223 275 318 398
#     4  12  25  45  71  98 128 178 228 278 336 413
#     4  11  24  40  61  93 139 171 215 280 338 397
#     4  10  21  39  67  94 124 162 223 275 317 402
#     4   9  19  38  63  92 124 169 222 262 325 396
#
# _framework density 25.739079
#
# number of rings (size 3 to 8) (size 9 to 14) (size 15 to 20)
#    0.000    1.750    1.250    3.000    7.000    3.000 
#    4.500    0.000    0.000    0.000    0.000    0.000 
#    0.000    0.000    0.000    0.000    0.000    0.000 
#
# Total GULP energy -89258.842447 kJ/mol
# GULP energy per Si atom -5578.677653 kJ/mol
# Density = 2.568050 g / cm^3
# Si number density = 25.739079 Si / 1000 Ang^3
#
#
#
# Elastic Constant Matrix: (Units=GPa)
#
#
# Indices 1 2 3 4 5 6 
#
# 1 93.2937 46.7146 23.9948 6.4197 -26.5095 -15.5623
# 2 46.7146 147.6952 37.8451 21.3868 6.0848 -53.3108
# 3 23.9948 37.8451 80.3065 10.8267 -9.1438 -8.5735
# 4 6.4197 21.3868 10.8267 47.6483 -9.8904 -0.6449
# 5 -26.5095 6.0848 -9.1438 -9.8904 32.5130 3.1987
# 6 -15.5623 -53.3108 -8.5735 -0.6449 3.1987 50.2217
#
#
#
# Elastic Compliance Matrix: (Units=1/GPa)
#
#
# Indices 1 2 3 4 5 6 
#
# 1 0.020536 -0.010299 -0.000354 0.006225 0.021045 -0.005890
# 2 -0.010299 0.020281 -0.005255 -0.010126 -0.018570 0.018493
# 3 -0.000354 -0.005255 0.015277 -0.000005 0.005326 -0.003420
# 4 0.006225 -0.010126 -0.000005 0.027973 0.016414 -0.009507
# 5 0.021045 -0.018570 0.005326 0.016414 0.059442 -0.015857
# 6 -0.005890 0.018493 -0.003420 -0.009507 -0.015857 0.038021
#
#
# Mechanical properties :
#
#
# Convention : Reuss Voigt Hill
#
# Bulk Modulus (GPa) = 41.19184 59.82272 50.50728
# Shear Modulus (GPa) = 22.57951 40.25933 31.41942
#
# Velocity S-wave (km/s) = 2.96505 3.95920 3.49763
# Velocity P-wave (km/s) = 5.26881 6.64777 5.99805
#
# Compressibility (1/GPa) = 0.02427665
#
# Stress axis : x y z
#
# Youngs Moduli (GPa) = 48.69497 49.30692 65.45835
#
# Poissons Ratio (x) = 0.50780 0.02319
# Poissons Ratio (y) = 0.50150 0.34402
# Poissons Ratio (z) = 0.01725 0.25913
#
# Static dielectric constant tensor:
#      x y z
#    x 1.984460 0.034470 0.159880 
#    y 0.034470 2.138070 0.041570 
#    z 0.159880 0.041570 2.062840 
# 
# From -- ./inp_files/127604.got.cif
#   From: 2010.05.17/outbox.cif.g08.bks.cpg/sg2_64_cif.got.tgz:127604.got - 2010.06.03 11:33:40.
