data_PCOD9008459
_publ_section_title
;
Structure prediction by ZEFSAII (Michael W. Deem and Ramdas Pophale) SiO2 
 PCOD9008459
Probable space group: P -1
;
_chemical_formula_sum "Si O2"
_cell_formula_units_Z 16
_cell_length_a 5.093561
_cell_length_b 9.398771
_cell_length_c 14.039683
_cell_angle_alpha 89.452844
_cell_angle_beta 111.643800
_cell_angle_gamma 107.142733
_cell_volume 593.249126
_symmetry_space_group_name_H-M "P -1"
_symmetry_group_IT_number 2
_symmetry_cell_setting 'triclinic'
loop_
_space_group_symop_operation_xyz
x,y,z
-x,-y,-z
loop_
_atom_site_type_symbol
_atom_site_label
_atom_site_fract_x
_atom_site_fract_y
_atom_site_fract_z
Si Si1 0.284224 0.017907 0.842344
Si Si2 0.355545 0.103173 0.561472
Si Si3 0.693312 0.842060 0.943538
Si Si4 0.610918 0.713383 0.263856
Si Si5 0.761211 0.473952 0.182330
Si Si6 0.661148 0.188362 0.399476
Si Si7 0.878210 0.714959 0.705615
Si Si8 0.028299 0.653451 0.057580
O O1 0.193218 0.130199 0.758020
O O2 0.580346 0.963618 0.870688
O O3 0.033647 0.858791 0.791591
O O4 0.305992 0.096148 0.948509
O O5 0.386284 0.248939 0.625735
O O6 0.581398 0.157860 0.502239
O O7 0.457259 0.987565 0.642389
O O8 0.000000 0.000000 0.500000
O O9 0.465733 0.683581 0.879115
O O10 0.984379 0.784940 0.986693
O O11 0.706867 0.568060 0.262055
O O12 0.314965 0.698688 0.162453
O O13 0.056419 0.428385 0.240838
O O14 0.766904 0.593077 0.099527
O O15 0.963495 0.253710 0.378192
O O16 0.456698 0.287268 0.343696
O O17 0.000000 0.500000 0.000000
#
# Coordination Sequence:
#
# PCOD9008459 Si02
#       8
#     2   2   2   2   2   2   2   2
#     4  10  21  39  64  98 137 179 240 287 349 408
#     4  11  24  45  76 107 140 180 231 305 366 424
#     4  10  21  40  62  92 139 186 229 294 341 413
#     4  12  24  42  69 104 132 186 237 290 357 430
#     4  11  25  44  65  94 151 185 239 282 358 424
#     4  11  23  45  73 103 140 177 234 293 369 415
#     4  11  25  44  73 104 143 191 234 299 350 429
#     4  12  24  39  67  98 140 192 233 290 347 426
#
# _framework density 26.970122
#
# number of rings (size 3 to 8) (size 9 to 14) (size 15 to 20)
#    0.000    1.000    5.000    1.125    3.500    2.500 
#    0.000    1.250    0.000    0.000    0.000    0.000 
#    0.000    0.000    0.000    0.000    0.000    0.000 
#
# Total GULP energy -89274.330432 kJ/mol
# GULP energy per Si atom -5579.645652 kJ/mol
# Density = 2.690874 g / cm^3
# Si number density = 26.970122 Si / 1000 Ang^3
#
#
#
# Elastic Constant Matrix: (Units=GPa)
#
#
# Indices 1 2 3 4 5 6 
#
# 1 86.3640 43.3839 26.0317 13.1198 -9.6816 -18.7355
# 2 43.3839 149.7629 29.9094 -12.5989 -12.1384 -30.7092
# 3 26.0317 29.9094 100.5370 6.3203 -33.0640 -7.6717
# 4 13.1198 -12.5989 6.3203 51.7231 -9.7414 -8.6075
# 5 -9.6816 -12.1384 -33.0640 -9.7414 46.7102 -4.5798
# 6 -18.7355 -30.7092 -7.6717 -8.6075 -4.5798 47.1400
#
#
#
# Elastic Compliance Matrix: (Units=1/GPa)
#
#
# Indices 1 2 3 4 5 6 
#
# 1 0.015385 -0.003830 -0.002452 -0.004161 -0.000170 0.002444
# 2 -0.003830 0.009814 -0.000888 0.004969 0.002743 0.005901
# 3 -0.002452 -0.000888 0.014082 0.000789 0.009571 0.001813
# 4 -0.004161 0.004969 0.000789 0.023868 0.006623 0.006713
# 5 -0.000170 0.002743 0.009571 0.006623 0.030977 0.007496
# 6 0.002444 0.005901 0.001813 0.006713 0.007496 0.028278
#
#
# Mechanical properties :
#
#
# Convention : Reuss Voigt Hill
#
# Bulk Modulus (GPa) = 40.09381 59.47934 49.78657
# Shear Modulus (GPa) = 34.46881 44.93727 39.70304
#
# Velocity S-wave (km/s) = 3.57884 4.08632 3.84097
# Velocity P-wave (km/s) = 5.65471 6.66076 6.17825
#
# Compressibility (1/GPa) = 0.02494151
#
# Stress axis : x y z
#
# Youngs Moduli (GPa) = 64.99778 101.89243 71.01145
#
# Poissons Ratio (x) = 0.39022 0.17413
# Poissons Ratio (y) = 0.24892 0.06307
# Poissons Ratio (z) = 0.15939 0.09050
#
# Static dielectric constant tensor:
#      x y z
#    x 2.374010 0.096310 -0.078550 
#    y 0.096310 2.119810 -0.057250 
#    z -0.078550 -0.057250 2.208650 
# 
# From -- ./inp_files/135662.got.cif
#   From: 2010.05.17/outbox.cif.g08.bks.cpg/sg2_68_cif.got.tgz:135662.got - 2010.06.03 11:33:40.
