data_PCOD9008874
_publ_section_title
;
Structure prediction by ZEFSAII (Michael W. Deem and Ramdas Pophale) SiO2 
 PCOD9008874
Probable space group: P -1
;
_chemical_formula_sum "Si O2"
_cell_formula_units_Z 16
_cell_length_a 20.011696
_cell_length_b 5.322281
_cell_length_c 20.689161
_cell_angle_alpha 56.361252
_cell_angle_beta 20.644236
_cell_angle_gamma 54.994051
_cell_volume 635.229163
_symmetry_space_group_name_H-M "P -1"
_symmetry_group_IT_number 2
_symmetry_cell_setting 'triclinic'
loop_
_space_group_symop_operation_xyz
x,y,z
-x,-y,-z
loop_
_atom_site_type_symbol
_atom_site_label
_atom_site_fract_x
_atom_site_fract_y
_atom_site_fract_z
Si Si1 0.815569 0.693129 0.446203
Si Si2 0.556204 0.358352 0.897903
Si Si3 0.758768 0.580908 0.083077
Si Si4 0.009699 0.000533 0.873049
Si Si5 0.806838 0.836300 0.566270
Si Si6 0.486907 0.365483 0.820949
Si Si7 0.092760 0.080927 0.337916
Si Si8 0.595477 0.300215 0.382184
O O1 0.885653 0.816682 0.299933
O O2 0.790319 0.936466 0.492665
O O3 0.603442 0.606978 0.648798
O O4 0.979436 0.406633 0.365573
O O5 0.730465 0.528273 0.691282
O O6 0.426312 0.452088 0.936972
O O7 0.678070 0.007930 0.846712
O O8 0.500000 0.500000 0.000000
O O9 0.672429 0.705805 0.073961
O O10 0.593005 0.510448 0.291141
O O11 0.120518 0.198180 0.020721
O O12 0.884820 0.251602 0.996393
O O13 0.179102 0.797256 0.789385
O O14 0.026112 0.837671 0.384135
O O15 0.658331 0.070930 0.710123
O O16 0.000000 0.000000 0.500000
O O17 0.500000 0.500000 0.500000
O O18 0.500000 0.000000 0.500000
#
# Coordination Sequence:
#
# PCOD9008874 Si02
#       8
#     2   2   2   2   2   2   2   2
#     4  10  24  41  72  98 137 193 258 300 370 451
#     4  11  24  40  65  98 139 185 250 322 389 439
#     4  12  28  48  76 113 164 194 242 314 381 444
#     4  12  28  48  75 117 156 196 245 313 378 442
#     4  10  21  39  66  89 133 183 251 307 371 441
#     4  10  24  44  67 100 143 196 252 306 377 456
#     4  11  20  42  62  94 125 185 246 311 360 440
#     4  12  26  50  86 117 153 204 250 294 365 461
#
# _framework density 25.187760999999998
#
# number of rings (size 3 to 8) (size 9 to 14) (size 15 to 20)
#    0.000    1.000    3.750    3.375    8.750    2.500 
#    0.000    0.000    0.000    0.000    0.000    0.000 
#    0.000    0.000    0.000    0.000    0.000    0.000 
#
# Total GULP energy -89389.407462 kJ/mol
# GULP energy per Si atom -5586.837966 kJ/mol
# Density = 2.513043 g / cm^3
# Si number density = 25.187761 Si / 1000 Ang^3
#
#
#
# Elastic Constant Matrix: (Units=GPa)
#
#
# Indices 1 2 3 4 5 6 
#
# 1 146.8467 26.7905 39.7672 -7.7029 13.1995 4.6683
# 2 26.7905 54.3300 11.4744 -6.1968 12.1636 5.7119
# 3 39.7672 11.4744 91.7783 -0.5924 18.5866 4.6087
# 4 -7.7029 -6.1968 -0.5924 48.3171 1.8162 -1.9105
# 5 13.1995 12.1636 18.5866 1.8162 58.2566 5.0628
# 6 4.6683 5.7119 4.6087 -1.9105 5.0628 38.8130
#
#
#
# Elastic Compliance Matrix: (Units=1/GPa)
#
#
# Indices 1 2 3 4 5 6 
#
# 1 0.008329 -0.003287 -0.003144 0.000873 -0.000219 -0.000073
# 2 -0.003287 0.021375 -0.000424 0.002258 -0.003468 -0.002136
# 3 -0.003144 -0.000424 0.013008 -0.000300 -0.003280 -0.000691
# 4 0.000873 0.002258 -0.000300 0.021203 -0.001305 0.000812
# 5 -0.000219 -0.003468 -0.003280 -0.001305 0.019168 -0.001639
# 6 -0.000073 -0.002136 -0.000691 0.000812 -0.001639 0.026424
#
#
# Mechanical properties :
#
#
# Convention : Reuss Voigt Hill
#
# Bulk Modulus (GPa) = 34.48094 49.89103 42.18599
# Shear Modulus (GPa) = 37.62679 43.40555 40.51617
#
# Velocity S-wave (km/s) = 3.86923 4.15574 4.01504
# Velocity P-wave (km/s) = 5.80349 6.54810 6.18701
#
# Compressibility (1/GPa) = 0.02900153
#
# Stress axis : x y z
#
# Youngs Moduli (GPa) = 120.06662 46.78406 76.87432
#
# Poissons Ratio (x) = 0.15376 0.24172
# Poissons Ratio (y) = 0.39462 0.03260
# Poissons Ratio (z) = 0.37753 0.01984
#
# Static dielectric constant tensor:
#      x y z
#    x 2.213650 0.135140 -0.031050 
#    y 0.135140 2.164580 -0.005560 
#    z -0.031050 -0.005560 1.991210 
# 
# From -- ./inp_files/574786.got.cif
#   From: 2010.05.17/outbox.cif.g08.bks.cpg/sg2_288_cif.got.tgz:574786.got - 2010.06.03 11:33:40.
