data_PCOD9008091
_publ_section_title
;
Structure prediction by ZEFSAII (Michael W. Deem and Ramdas Pophale) SiO2 
 PCOD9008091
Probable space group: P -1
;
_chemical_formula_sum "Si O2"
_cell_formula_units_Z 14
_cell_length_a 9.133615
_cell_length_b 14.512935
_cell_length_c 7.787300
_cell_angle_alpha 121.329244
_cell_angle_beta 94.687732
_cell_angle_gamma 130.983724
_cell_volume 502.629773
_symmetry_space_group_name_H-M "P -1"
_symmetry_group_IT_number 2
_symmetry_cell_setting 'triclinic'
loop_
_space_group_symop_operation_xyz
x,y,z
-x,-y,-z
loop_
_atom_site_type_symbol
_atom_site_label
_atom_site_fract_x
_atom_site_fract_y
_atom_site_fract_z
Si Si1 0.882932 0.323192 0.909761
Si Si2 0.143744 0.288789 0.046672
Si Si3 0.574094 0.381507 0.096747
Si Si4 0.930269 0.848081 0.745036
Si Si5 0.240326 0.111513 0.512534
Si Si6 0.823499 0.193918 0.436045
Si Si7 0.287927 0.713329 0.772606
O O1 0.742374 0.173325 0.599805
O O2 0.000000 0.500000 0.000000
O O3 0.117368 0.389905 0.064311
O O4 0.130080 0.407194 0.681028
O O5 0.168018 0.294139 0.258919
O O6 0.730639 0.246263 0.999901
O O7 0.872420 0.063915 0.757160
O O8 0.479320 0.254139 0.800613
O O9 0.377632 0.361624 0.063826
O O10 0.553753 0.300455 0.192548
O O11 0.740151 0.780636 0.518843
O O12 0.155799 0.916153 0.736274
O O13 0.000000 0.000000 0.000000
O O14 0.000000 0.000000 0.500000
O O15 0.673323 0.180090 0.274945
O O16 0.000000 0.500000 0.500000
#
# Coordination Sequence:
#
# PCOD9008091 Si02
#       7
#     2   2   2   2   2   2   2
#     4  12  22  40  68  93 129 178 211 260 333 381
#     4  10  22  39  64  91 128 171 218 264 326 376
#     4  10  21  39  63  98 125 167 220 271 314 388
#     4  10  21  40  66  93 130 171 214 266 325 381
#     4   9  19  39  62  87 125 164 211 264 318 378
#     4  11  22  40  66  92 135 173 213 268 326 378
#     4  10  21  42  60  93 133 168 209 267 320 387
#
# _framework density 27.853504000000001
#
# number of rings (size 3 to 8) (size 9 to 14) (size 15 to 20)
#    0.000    1.714    4.286    1.714    0.000    2.857 
#    7.714    0.714    0.000    8.571    0.000    0.000 
#    0.000    0.000    0.000    0.000    0.000    0.000 
#
# Total GULP energy -78378.847936 kJ/mol
# GULP energy per Si atom -5598.489138 kJ/mol
# Density = 2.779011 g / cm^3
# Si number density = 27.853504 Si / 1000 Ang^3
#
#
#
# Elastic Constant Matrix: (Units=GPa)
#
#
# Indices 1 2 3 4 5 6 
#
# 1 131.9397 58.6675 21.2045 -18.4302 -5.7174 -27.3477
# 2 58.6675 155.5929 61.8939 -38.2727 16.6774 -31.3572
# 3 21.2045 61.8939 119.9946 -12.7477 -5.3400 -3.1482
# 4 -18.4302 -38.2727 -12.7477 63.5786 3.6610 9.6438
# 5 -5.7174 16.6774 -5.3400 3.6610 49.8063 -19.1197
# 6 -27.3477 -31.3572 -3.1482 9.6438 -19.1197 67.2624
#
#
#
# Elastic Compliance Matrix: (Units=1/GPa)
#
#
# Indices 1 2 3 4 5 6 
#
# 1 0.010009 -0.003599 0.000350 0.000068 0.003712 0.003454
# 2 -0.003599 0.011952 -0.005145 0.005112 -0.004646 0.001814
# 3 0.000350 -0.005145 0.010934 -0.000825 0.002662 -0.000869
# 4 0.000068 0.005112 -0.000825 0.019093 -0.003745 -0.001430
# 5 0.003712 -0.004646 0.002662 -0.003745 0.025393 0.007223
# 6 0.003454 0.001814 -0.000869 -0.001430 0.007223 0.019335
#
#
# Mechanical properties :
#
#
# Convention : Reuss Voigt Hill
#
# Bulk Modulus (GPa) = 62.07935 76.78432 69.43183
# Shear Modulus (GPa) = 42.06253 53.84688 47.95470
#
# Velocity S-wave (km/s) = 3.89026 4.40161 4.15381
# Velocity P-wave (km/s) = 6.52035 7.31158 6.92727
#
# Compressibility (1/GPa) = 0.01610842
#
# Stress axis : x y z
#
# Youngs Moduli (GPa) = 99.90696 83.67062 91.46139
#
# Poissons Ratio (x) = 0.30110 -0.03206
# Poissons Ratio (y) = 0.35953 0.47056
# Poissons Ratio (z) = -0.03502 0.43047
#
# Static dielectric constant tensor:
#      x y z
#    x 2.227780 -0.017950 -0.047120 
#    y -0.017950 2.193800 0.081090 
#    z -0.047120 0.081090 2.261910 
# 
# From -- ./inp_files/274099.got.cif
#   From: 2010.05.17/outbox.cif.g08.bks.cpg/sg2_138_cif.got.tgz:274099.got - 2010.06.03 11:33:40.
