data_PCOD9008977
_publ_section_title
;
Structure prediction by ZEFSAII (Michael W. Deem and Ramdas Pophale) SiO2 
 PCOD9008977
Probable space group: P -1
;
_chemical_formula_sum "Si O2"
_cell_formula_units_Z 16
_cell_length_a 9.265494
_cell_length_b 15.476039
_cell_length_c 14.039407
_cell_angle_alpha 41.036906
_cell_angle_beta 118.456659
_cell_angle_gamma 140.595773
_cell_volume 811.247801
_symmetry_space_group_name_H-M "P -1"
_symmetry_group_IT_number 2
_symmetry_cell_setting 'triclinic'
loop_
_space_group_symop_operation_xyz
x,y,z
-x,-y,-z
loop_
_atom_site_type_symbol
_atom_site_label
_atom_site_fract_x
_atom_site_fract_y
_atom_site_fract_z
Si Si1 0.784114 0.778608 0.132845
Si Si2 0.301844 0.166274 0.562964
Si Si3 0.449608 0.557042 0.031174
Si Si4 0.971577 0.771956 0.688029
Si Si5 0.161165 0.483877 0.615125
Si Si6 0.888228 0.428919 0.127575
Si Si7 0.868751 0.278095 0.876527
Si Si8 0.624870 0.864701 0.174647
O O1 0.652054 0.679377 0.073222
O O2 0.865379 0.685671 0.279648
O O3 0.620052 0.758948 0.174342
O O4 0.000000 0.000000 0.000000
O O5 0.154435 0.205193 0.445861
O O6 0.567468 0.328021 0.473666
O O7 0.303002 0.158324 0.683909
O O8 0.177674 0.967379 0.644469
O O9 0.226219 0.373877 0.172972
O O10 0.500000 0.500000 0.000000
O O11 0.370832 0.657480 0.888322
O O12 0.075300 0.702408 0.727079
O O13 0.000000 0.500000 0.500000
O O14 0.073217 0.429713 0.740965
O O15 0.042845 0.613659 0.086951
O O16 0.000000 0.500000 0.000000
O O17 0.629484 0.214982 0.825210
O O18 0.802496 0.086539 0.021245
#
# Coordination Sequence:
#
# PCOD9008977 Si02
#       8
#     2   2   2   2   2   2   2   2
#     4  12  26  43  69 107 141 178 241 286 338 421
#     4  11  24  43  71  95 139 183 232 285 355 407
#     4  11  23  42  71  98 136 181 226 285 345 406
#     4  10  23  43  67  96 136 182 235 278 338 430
#     4  12  25  46  65 101 142 182 218 297 354 405
#     4  10  21  39  66  95 129 172 236 273 341 404
#     4  11  23  41  68 100 132 181 231 287 342 417
#     4  11  23  41  69  97 137 180 231 283 349 409
#
# _framework density 19.722702999999999
#
# number of rings (size 3 to 8) (size 9 to 14) (size 15 to 20)
#    0.000    1.000    3.750    3.750    1.750    3.500 
#    0.000    0.625    0.000    0.000    0.000    0.000 
#    0.000    0.000    0.000    0.000    0.000    0.000 
#
# Total GULP energy -89348.445451 kJ/mol
# GULP energy per Si atom -5584.277841 kJ/mol
# Density = 1.967781 g / cm^3
# Si number density = 19.722703 Si / 1000 Ang^3
#
#
#
# Elastic Constant Matrix: (Units=GPa)
#
#
# Indices 1 2 3 4 5 6 
#
# 1 116.3120 45.2561 38.0010 3.8553 15.9328 -14.5448
# 2 45.2561 112.2617 51.4487 5.0713 4.9098 -7.5684
# 3 38.0010 51.4487 79.9313 -2.6441 7.2875 0.1934
# 4 3.8553 5.0713 -2.6441 32.3568 -1.4515 -10.5996
# 5 15.9328 4.9098 7.2875 -1.4515 40.9341 0.0598
# 6 -14.5448 -7.5684 0.1934 -10.5996 0.0598 34.4351
#
#
#
# Elastic Compliance Matrix: (Units=1/GPa)
#
#
# Indices 1 2 3 4 5 6 
#
# 1 0.011874 -0.002677 -0.003598 0.000006 -0.003666 0.004455
# 2 -0.002677 0.013632 -0.007634 -0.001986 0.000694 0.001296
# 3 -0.003598 -0.007634 0.019312 0.002307 -0.001036 -0.002594
# 4 0.000006 -0.001986 0.002307 0.034815 0.001045 0.010268
# 5 -0.003666 0.000694 -0.001036 0.001045 0.025997 -0.001114
# 6 0.004455 0.001296 -0.002594 0.010268 -0.001114 0.034384
#
#
# Mechanical properties :
#
#
# Convention : Reuss Voigt Hill
#
# Bulk Modulus (GPa) = 58.82434 64.21295 61.51865
# Shear Modulus (GPa) = 28.81865 33.13183 30.97524
#
# Velocity S-wave (km/s) = 3.82670 4.10308 3.96730
# Velocity P-wave (km/s) = 7.02960 7.42130 7.22810
#
# Compressibility (1/GPa) = 0.01699976
#
# Stress axis : x y z
#
# Youngs Moduli (GPa) = 84.21727 73.35526 51.78110
#
# Poissons Ratio (x) = 0.19639 0.18632
# Poissons Ratio (y) = 0.22547 0.39529
# Poissons Ratio (z) = 0.30303 0.55998
#
# Static dielectric constant tensor:
#      x y z
#    x 1.711840 0.013310 0.033520 
#    y 0.013310 1.677880 0.010740 
#    z 0.033520 0.010740 1.721220 
# 
# From -- ./inp_files/503911.got.cif
#   From: 2010.05.17/outbox.cif.g08.bks.cpg/sg2_252_cif.got.tgz:503911.got - 2010.06.03 11:33:40.
