data_PCOD9008582
_publ_section_title
;
Structure prediction by ZEFSAII (Michael W. Deem and Ramdas Pophale) SiO2 
 PCOD9008582
Probable space group: P -1
;
_chemical_formula_sum "Si O2"
_cell_formula_units_Z 16
_cell_length_a 19.024609
_cell_length_b 9.242297
_cell_length_c 7.770592
_cell_angle_alpha 132.648387
_cell_angle_beta 136.208302
_cell_angle_gamma 56.539749
_cell_volume 690.239989
_symmetry_space_group_name_H-M "P -1"
_symmetry_group_IT_number 2
_symmetry_cell_setting 'triclinic'
loop_
_space_group_symop_operation_xyz
x,y,z
-x,-y,-z
loop_
_atom_site_type_symbol
_atom_site_label
_atom_site_fract_x
_atom_site_fract_y
_atom_site_fract_z
Si Si1 0.641204 0.528486 0.930890
Si Si2 0.280508 0.571968 0.627588
Si Si3 0.891874 0.170090 0.283282
Si Si4 0.411570 0.731641 0.686285
Si Si5 0.002918 0.504453 0.804255
Si Si6 0.103471 0.848796 0.103629
Si Si7 0.724106 0.902820 0.349370
Si Si8 0.815206 0.782222 0.757788
O O1 0.669584 0.458860 0.118771
O O2 0.531203 0.662864 0.858423
O O3 0.718596 0.675102 0.111534
O O4 0.627084 0.360467 0.632767
O O5 0.181303 0.729252 0.617555
O O6 0.354098 0.645137 0.675833
O O7 0.241631 0.361761 0.340101
O O8 0.994444 0.279166 0.552276
O O9 0.851811 0.216630 0.056832
O O10 0.883743 0.935931 0.088951
O O11 0.374192 0.963645 0.791171
O O12 0.894261 0.631894 0.664307
O O13 0.082261 0.647379 0.995383
O O14 0.000000 0.500000 0.000000
O O15 0.180481 0.980677 0.437921
O O16 0.000000 0.000000 0.000000
O O17 0.734461 0.890696 0.567470
#
# Coordination Sequence:
#
# PCOD9008582 Si02
#       8
#     2   2   2   2   2   2   2   2
#     4  10  22  43  65  93 131 163 201 266 316 367
#     4  10  22  40  64  94 129 163 204 259 313 370
#     4  10  21  40  63  82 126 167 205 252 311 364
#     4  11  23  40  67  98 121 165 217 248 316 387
#     4  11  23  38  58  90 121 159 211 260 304 369
#     4  11  21  42  64  87 120 170 213 250 313 370
#     4  10  21  39  65  91 125 160 209 259 304 371
#     4   9  20  41  58  85 126 163 205 257 305 368
#
# _framework density 23.180344000000002
#
# number of rings (size 3 to 8) (size 9 to 14) (size 15 to 20)
#    0.000    1.750    2.500    2.625    3.500    1.500 
#    2.250    0.000    0.000   10.500    0.000    0.000 
#    0.000    0.000    0.000    0.000    0.000    0.000 
#
# Total GULP energy -89273.600325 kJ/mol
# GULP energy per Si atom -5579.600020 kJ/mol
# Density = 2.312758 g / cm^3
# Si number density = 23.180344 Si / 1000 Ang^3
#
#
#
# Elastic Constant Matrix: (Units=GPa)
#
#
# Indices 1 2 3 4 5 6 
#
# 1 83.3302 27.3921 17.6090 6.7673 7.6506 22.6161
# 2 27.3921 94.2431 20.5351 5.8596 -2.8550 18.4327
# 3 17.6090 20.5351 68.5109 23.5380 9.9373 12.9532
# 4 6.7673 5.8596 23.5380 40.5326 5.3878 10.4613
# 5 7.6506 -2.8550 9.9373 5.3878 22.6538 3.7398
# 6 22.6161 18.4327 12.9532 10.4613 3.7398 38.1762
#
#
#
# Elastic Compliance Matrix: (Units=1/GPa)
#
#
# Indices 1 2 3 4 5 6 
#
# 1 0.015522 -0.002967 -0.001549 0.001117 -0.004022 -0.007149
# 2 -0.002967 0.013100 -0.003401 0.001038 0.004583 -0.004147
# 3 -0.001549 -0.003401 0.020604 -0.010100 -0.006370 -0.001040
# 4 0.001117 0.001038 -0.010100 0.032150 -0.002421 -0.006309
# 5 -0.004022 0.004583 -0.006370 -0.002421 0.049759 -0.001880
# 6 -0.007149 -0.004147 -0.001040 -0.006309 -0.001880 0.034697
#
#
# Mechanical properties :
#
#
# Convention : Reuss Voigt Hill
#
# Bulk Modulus (GPa) = 29.94719 41.90630 35.92674
# Shear Modulus (GPa) = 25.93406 32.30905 29.12156
#
# Velocity S-wave (km/s) = 3.34847 3.73743 3.54828
# Velocity P-wave (km/s) = 5.28175 6.06153 5.68503
#
# Compressibility (1/GPa) = 0.03339212
#
# Stress axis : x y z
#
# Youngs Moduli (GPa) = 64.42481 76.33823 48.53380
#
# Poissons Ratio (x) = 0.22650 0.07517
# Poissons Ratio (y) = 0.19115 0.16507
# Poissons Ratio (z) = 0.09978 0.25963
#
# Static dielectric constant tensor:
#      x y z
#    x 1.873450 -0.033780 0.034930 
#    y -0.033780 1.924100 0.000310 
#    z 0.034930 0.000310 1.919400 
# 
# From -- ./inp_files/342273.got.cif
#   From: 2010.05.17/outbox.cif.g08.bks.cpg/sg2_172_cif.got.tgz:342273.got - 2010.06.03 11:33:40.
