data_PCOD9008470
_publ_section_title
;
Structure prediction by ZEFSAII (Michael W. Deem and Ramdas Pophale) SiO2 
 PCOD9008470
Probable space group: P -1
;
_chemical_formula_sum "Si O2"
_cell_formula_units_Z 16
_cell_length_a 13.764924
_cell_length_b 8.243888
_cell_length_c 15.900103
_cell_angle_alpha 154.570177
_cell_angle_beta 59.274315
_cell_angle_gamma 125.364594
_cell_volume 631.457240
_symmetry_space_group_name_H-M "P -1"
_symmetry_group_IT_number 2
_symmetry_cell_setting 'triclinic'
loop_
_space_group_symop_operation_xyz
x,y,z
-x,-y,-z
loop_
_atom_site_type_symbol
_atom_site_label
_atom_site_fract_x
_atom_site_fract_y
_atom_site_fract_z
Si Si1 0.276229 0.179087 0.180964
Si Si2 0.671265 0.157256 0.838763
Si Si3 0.016936 0.986662 0.215553
Si Si4 0.916620 0.740804 0.985116
Si Si5 0.692133 0.515213 0.271767
Si Si6 0.954273 0.913775 0.385655
Si Si7 0.533977 0.973434 0.232296
Si Si8 0.451882 0.359613 0.761278
O O1 0.405891 0.476737 0.239713
O O2 0.274372 0.101009 0.245649
O O3 0.150103 0.231362 0.240971
O O4 0.267710 0.778162 0.945818
O O5 0.778375 0.522788 0.926603
O O6 0.588992 0.944860 0.698711
O O7 0.592333 0.309920 0.014024
O O8 0.994554 0.150246 0.391861
O O9 0.000000 0.500000 0.000000
O O10 0.923544 0.980355 0.180669
O O11 0.985890 0.425697 0.816953
O O12 0.000000 0.000000 0.000000
O O13 0.812148 0.806502 0.394332
O O14 0.614095 0.692685 0.324849
O O15 0.623730 0.240503 0.250068
O O16 0.000000 0.000000 0.500000
O O17 0.570439 0.986062 0.319732
O O18 0.500000 0.500000 0.000000
#
# Coordination Sequence:
#
# PCOD9008470 Si02
#       8
#     2   2   2   2   2   2   2   2
#     4  11  15  30  52  82 116 143 192 247 303 340
#     4  10  17  29  47  81 122 140 185 241 308 345
#     4  10  18  34  56  82 113 155 201 247 286 351
#     4  11  23  35  60  94 120 153 201 261 301 343
#     4  11  18  34  54  80 117 155 196 239 297 360
#     4  11  24  42  60  82 122 168 203 239 303 372
#     4  10  19  27  49  85 120 146 184 249 304 350
#     4  10  20  28  51  86 117 149 187 252 307 346
#
# _framework density 25.338215999999999
#
# number of rings (size 3 to 8) (size 9 to 14) (size 15 to 20)
#    0.000    1.500    8.750    1.500    5.250    0.000 
#    0.000    0.625    0.000    3.000    0.000    1.750 
#    0.000    0.000    0.000    0.000    0.000    0.000 
#
# Total GULP energy -89213.796939 kJ/mol
# GULP energy per Si atom -5575.862309 kJ/mol
# Density = 2.528055 g / cm^3
# Si number density = 25.338216 Si / 1000 Ang^3
#
#
#
# Elastic Constant Matrix: (Units=GPa)
#
#
# Indices 1 2 3 4 5 6 
#
# 1 94.6202 57.9871 30.3096 0.8587 42.5953 8.7282
# 2 57.9871 180.4595 35.5139 -16.3220 32.6999 10.5263
# 3 30.3096 35.5139 82.9918 -13.5290 20.9998 -17.2097
# 4 0.8587 -16.3220 -13.5290 22.0394 -7.6303 20.0649
# 5 42.5953 32.6999 20.9998 -7.6303 49.1596 -3.5948
# 6 8.7282 10.5263 -17.2097 20.0649 -3.5948 50.7112
#
#
#
# Elastic Compliance Matrix: (Units=1/GPa)
#
#
# Indices 1 2 3 4 5 6 
#
# 1 0.022068 -0.004282 -0.004147 -0.011327 -0.016332 -0.000992
# 2 -0.004282 0.008557 -0.001522 0.010888 -0.000070 -0.005869
# 3 -0.004147 -0.001522 0.016225 0.004173 -0.001327 0.004790
# 4 -0.011327 0.010888 0.004173 0.092181 0.012576 -0.034476
# 5 -0.016332 -0.000070 -0.001327 0.012576 0.037061 0.000026
# 6 -0.000992 -0.005869 0.004790 -0.034476 0.000026 0.036377
#
#
# Mechanical properties :
#
#
# Convention : Reuss Voigt Hill
#
# Bulk Modulus (GPa) = 37.10932 67.29918 52.20425
# Shear Modulus (GPa) = 20.71654 39.99943 30.35798
#
# Velocity S-wave (km/s) = 2.86247 3.97750 3.46513
# Velocity P-wave (km/s) = 5.05988 6.90739 6.05452
#
# Compressibility (1/GPa) = 0.02694741
#
# Stress axis : x y z
#
# Youngs Moduli (GPa) = 45.31512 116.86569 61.63466
#
# Poissons Ratio (x) = 0.50044 0.25558
# Poissons Ratio (y) = 0.19405 0.09380
# Poissons Ratio (z) = 0.18791 0.17786
#
# Static dielectric constant tensor:
#      x y z
#    x 2.399200 -0.358590 0.031840 
#    y -0.358590 2.312770 -0.075870 
#    z 0.031840 -0.075870 2.191470 
# 
# From -- ./inp_files/278354.got.cif
#   From: 2010.05.17/outbox.cif.g08.bks.cpg/sg2_140_cif.got.tgz:278354.got - 2010.06.03 11:33:40.
