data_PCOD9008814
_publ_section_title
;
Structure prediction by ZEFSAII (Michael W. Deem and Ramdas Pophale) SiO2 
 PCOD9008814
Probable space group: P -1
;
_chemical_formula_sum "Si O2"
_cell_formula_units_Z 16
_cell_length_a 8.372973
_cell_length_b 8.794469
_cell_length_c 13.437447
_cell_angle_alpha 106.185010
_cell_angle_beta 84.506920
_cell_angle_gamma 55.349245
_cell_volume 740.142597
_symmetry_space_group_name_H-M "P -1"
_symmetry_group_IT_number 2
_symmetry_cell_setting 'triclinic'
loop_
_space_group_symop_operation_xyz
x,y,z
-x,-y,-z
loop_
_atom_site_type_symbol
_atom_site_label
_atom_site_fract_x
_atom_site_fract_y
_atom_site_fract_z
Si Si1 0.661596 0.911330 0.884437
Si Si2 0.480531 0.755773 0.204374
Si Si3 0.817074 0.484032 0.420026
Si Si4 0.900858 0.080933 0.411817
Si Si5 0.762510 0.608764 0.662881
Si Si6 0.025807 0.506091 0.882246
Si Si7 0.448564 0.855045 0.441096
Si Si8 0.801947 0.340503 0.766782
O O1 0.629530 0.797421 0.779122
O O2 0.886734 0.735122 0.886255
O O3 0.617063 0.097290 0.859017
O O4 0.500000 0.000000 0.000000
O O5 0.727332 0.630969 0.171687
O O6 0.378168 0.895057 0.336983
O O7 0.403875 0.620481 0.178279
O O8 0.878344 0.271784 0.409237
O O9 0.732205 0.621513 0.549697
O O10 0.634361 0.616002 0.379311
O O11 0.007325 0.462517 0.360630
O O12 0.688262 0.130223 0.459977
O O13 0.000000 0.000000 0.500000
O O14 0.028038 0.899434 0.294106
O O15 0.758909 0.435586 0.676311
O O16 0.908806 0.423032 0.829425
O O17 0.000000 0.500000 0.000000
O O18 0.500000 0.000000 0.500000
#
# Coordination Sequence:
#
# PCOD9008814 Si02
#       8
#     2   2   2   2   2   2   2   2
#     4  11  23  44  71  98 138 185 230 295 358 417
#     4  12  24  45  72 101 141 183 233 291 354 418
#     4  11  22  38  67  98 140 186 226 282 345 421
#     4  12  22  40  62  97 145 177 224 278 339 422
#     4  10  21  39  65  99 137 178 229 280 350 414
#     4  11  25  49  72 100 136 177 240 298 354 420
#     4  12  24  38  64 103 141 184 232 278 345 419
#     4  11  24  43  70 104 139 186 230 292 355 418
#
# _framework density 21.617456000000001
#
# number of rings (size 3 to 8) (size 9 to 14) (size 15 to 20)
#    0.000    0.750    3.750    4.875    1.750    0.500 
#    0.000    4.375    0.000    0.000    0.000    0.000 
#    0.000    0.000    0.000    0.000    0.000    0.000 
#
# Total GULP energy -89235.827284 kJ/mol
# GULP energy per Si atom -5577.239205 kJ/mol
# Density = 2.156825 g / cm^3
# Si number density = 21.617456 Si / 1000 Ang^3
#
#
#
# Elastic Constant Matrix: (Units=GPa)
#
#
# Indices 1 2 3 4 5 6 
#
# 1 120.7861 35.5952 14.2873 5.0843 -16.5527 5.7540
# 2 35.5952 113.8250 8.8641 -8.0395 -11.8901 11.0273
# 3 14.2873 8.8641 109.7564 -8.6740 -11.4460 2.4496
# 4 5.0843 -8.0395 -8.6740 33.3244 0.8131 -6.8398
# 5 -16.5527 -11.8901 -11.4460 0.8131 22.6393 -5.8831
# 6 5.7540 11.0273 2.4496 -6.8398 -5.8831 31.8092
#
#
#
# Elastic Compliance Matrix: (Units=1/GPa)
#
#
# Indices 1 2 3 4 5 6 
#
# 1 0.010033 -0.002645 -0.000704 -0.002563 0.005589 -0.000361
# 2 -0.002645 0.010276 0.000050 0.002407 0.002872 -0.002039
# 3 -0.000704 0.000050 0.009879 0.002741 0.004613 0.000792
# 4 -0.002563 0.002407 0.002741 0.033051 0.001350 0.006774
# 5 0.005589 0.002872 0.004613 0.001350 0.054112 0.007936
# 6 -0.000361 -0.002039 0.000792 0.006774 0.007936 0.035073
#
#
# Mechanical properties :
#
#
# Convention : Reuss Voigt Hill
#
# Bulk Modulus (GPa) = 42.39236 51.31787 46.85512
# Shear Modulus (GPa) = 29.96083 36.59598 33.27841
#
# Velocity S-wave (km/s) = 3.72688 4.11894 3.92780
# Velocity P-wave (km/s) = 6.17838 6.81260 6.50322
#
# Compressibility (1/GPa) = 0.02358915
#
# Stress axis : x y z
#
# Youngs Moduli (GPa) = 99.67376 97.31229 101.22764
#
# Poissons Ratio (x) = 0.25737 0.07127
# Poissons Ratio (y) = 0.26362 -0.00502
# Poissons Ratio (z) = 0.07017 -0.00483
#
# Static dielectric constant tensor:
#      x y z
#    x 1.799860 -0.029340 0.020800 
#    y -0.029340 1.834460 0.016080 
#    z 0.020800 0.016080 1.780930 
# 
# From -- ./inp_files/495205.got.cif
#   From: 2010.05.17/outbox.cif.g08.bks.cpg/sg2_248_cif.got.tgz:495205.got - 2010.06.03 11:33:40.
