data_PCOD9008014
_publ_section_title
;
Structure prediction by ZEFSAII (Michael W. Deem and Ramdas Pophale) SiO2 
 PCOD9008014
Probable space group: P -1
;
_chemical_formula_sum "Si O2"
_cell_formula_units_Z 14
_cell_length_a 9.828880
_cell_length_b 8.526039
_cell_length_c 11.768096
_cell_angle_alpha 117.920656
_cell_angle_beta 137.882761
_cell_angle_gamma 66.729740
_cell_volume 582.497336
_symmetry_space_group_name_H-M "P -1"
_symmetry_group_IT_number 2
_symmetry_cell_setting 'triclinic'
loop_
_space_group_symop_operation_xyz
x,y,z
-x,-y,-z
loop_
_atom_site_type_symbol
_atom_site_label
_atom_site_fract_x
_atom_site_fract_y
_atom_site_fract_z
Si Si1 0.615368 0.249714 0.636088
Si Si2 0.317650 0.368344 0.828578
Si Si3 0.570162 0.800165 0.935319
Si Si4 0.884756 0.190535 0.010626
Si Si5 0.268033 0.128950 0.517901
Si Si6 0.819070 0.589355 0.838391
Si Si7 0.168445 0.700945 0.742650
O O1 0.736635 0.230178 0.825366
O O2 0.385129 0.226628 0.523306
O O3 0.670780 0.432877 0.677169
O O4 0.687735 0.080172 0.546916
O O5 0.353133 0.198960 0.712026
O O6 0.150940 0.498065 0.702894
O O7 0.500000 0.500000 0.000000
O O8 0.286225 0.295497 0.909825
O O9 0.691371 0.752445 0.879288
O O10 0.358331 0.705839 0.777336
O O11 0.500000 0.000000 0.000000
O O12 0.783543 0.203513 0.075406
O O13 0.057471 0.330877 0.159909
O O14 0.000000 0.000000 0.000000
O O15 0.030811 0.188421 0.386801
O O16 0.000000 0.500000 0.000000
#
# Coordination Sequence:
#
# PCOD9008014 Si02
#       7
#     2   2   2   2   2   2   2
#     4  10  21  39  63  93 140 175 226 271 347 393
#     4  10  21  40  65  89 126 170 223 270 337 399
#     4  11  23  41  70  99 131 174 229 281 334 403
#     4  11  20  39  69  96 129 177 229 272 332 410
#     4  11  22  38  66  98 136 179 222 287 334 408
#     4  10  22  40  67  95 132 173 221 280 331 397
#     4  11  22  40  67 100 129 175 231 273 335 403
#
# _framework density 24.034441999999999
#
# number of rings (size 3 to 8) (size 9 to 14) (size 15 to 20)
#    0.000    1.429    1.429    6.429    2.000    0.000 
#    0.000    1.429    6.286    0.000    0.000    0.000 
#    0.000    0.000    0.000    0.000    0.000    0.000 
#
# Total GULP energy -78245.017892 kJ/mol
# GULP energy per Si atom -5588.929849 kJ/mol
# Density = 2.397974 g / cm^3
# Si number density = 24.034442 Si / 1000 Ang^3
#
#
#
# Elastic Constant Matrix: (Units=GPa)
#
#
# Indices 1 2 3 4 5 6 
#
# 1 86.1586 8.4520 16.5636 2.3774 8.4173 -19.6367
# 2 8.4520 58.7795 15.0273 17.3561 13.4283 -3.1234
# 3 16.5636 15.0273 86.5579 8.3717 -14.0301 -8.4903
# 4 2.3774 17.3561 8.3717 46.5775 -8.6921 0.5801
# 5 8.4173 13.4283 -14.0301 -8.6921 27.1768 7.3442
# 6 -19.6367 -3.1234 -8.4903 0.5801 7.3442 37.0885
#
#
#
# Elastic Compliance Matrix: (Units=1/GPa)
#
#
# Indices 1 2 3 4 5 6 
#
# 1 0.015797 0.003439 -0.004321 -0.003832 -0.012822 0.010263
# 2 0.003439 0.029350 -0.007838 -0.014745 -0.026485 0.007973
# 3 -0.004321 -0.007838 0.015622 0.003148 0.014926 -0.002376
# 4 -0.003832 -0.014745 0.003148 0.030779 0.021935 -0.007375
# 5 -0.012822 -0.026485 0.014926 0.021935 0.074149 -0.020628
# 6 0.010263 0.007973 -0.002376 -0.007375 -0.020628 0.036724
#
#
# Mechanical properties :
#
#
# Convention : Reuss Voigt Hill
#
# Bulk Modulus (GPa) = 23.07889 34.62020 28.84955
# Shear Modulus (GPa) = 21.33965 34.93211 28.13588
#
# Velocity S-wave (km/s) = 2.98296 3.81651 3.42519
# Velocity P-wave (km/s) = 4.63544 5.81865 5.26042
#
# Compressibility (1/GPa) = 0.04332963
#
# Stress axis : x y z
#
# Youngs Moduli (GPa) = 63.30164 34.07140 64.01103
#
# Poissons Ratio (x) = -0.11718 0.27659
# Poissons Ratio (y) = -0.21771 0.50174
# Poissons Ratio (z) = 0.27353 0.26706
#
# Static dielectric constant tensor:
#      x y z
#    x 1.895310 0.004870 0.033310 
#    y 0.004870 1.968230 -0.009020 
#    z 0.033310 -0.009020 1.982830 
# 
# From -- ./inp_files/238749.got.cif
#   From: 2010.05.17/outbox.cif.g08.bks.cpg/sg2_120_cif.got.tgz:238749.got - 2010.06.03 11:33:40.
