data_PCOD9008082
_publ_section_title
;
Structure prediction by ZEFSAII (Michael W. Deem and Ramdas Pophale) SiO2 
 PCOD9008082
Probable space group: P -1
;
_chemical_formula_sum "Si O2"
_cell_formula_units_Z 14
_cell_length_a 17.254441
_cell_length_b 9.837068
_cell_length_c 14.980959
_cell_angle_alpha 36.317560
_cell_angle_beta 33.438932
_cell_angle_gamma 29.481656
_cell_volume 659.426037
_symmetry_space_group_name_H-M "P -1"
_symmetry_group_IT_number 2
_symmetry_cell_setting 'triclinic'
loop_
_space_group_symop_operation_xyz
x,y,z
-x,-y,-z
loop_
_atom_site_type_symbol
_atom_site_label
_atom_site_fract_x
_atom_site_fract_y
_atom_site_fract_z
Si Si1 0.658454 0.104716 0.872790
Si Si2 0.701609 0.213624 0.966329
Si Si3 0.260982 0.396623 0.063575
Si Si4 0.874377 0.827520 0.180297
Si Si5 0.376632 0.998495 0.513508
Si Si6 0.817578 0.610149 0.660519
Si Si7 0.283942 0.477578 0.479482
O O1 0.718816 0.047408 0.947902
O O2 0.751898 0.229624 0.669686
O O3 0.698577 0.826796 0.933349
O O4 0.443834 0.347856 0.937400
O O5 0.804737 0.351517 0.792446
O O6 0.500000 0.500000 0.000000
O O7 0.765727 0.024883 0.094736
O O8 0.207018 0.327702 0.244504
O O9 0.077895 0.703113 0.051836
O O10 0.769061 0.977688 0.295087
O O11 0.867107 0.552761 0.331175
O O12 0.325229 0.100357 0.408838
O O13 0.377333 0.252111 0.424850
O O14 0.561673 0.688899 0.507860
O O15 0.000000 0.500000 0.500000
#
# Coordination Sequence:
#
# PCOD9008082 Si02
#       7
#     2   2   2   2   2   2   2
#     4  11  24  44  63  89 128 177 201 254 313 384
#     4  12  22  40  72  92 119 167 218 247 314 373
#     4  11  26  40  62  91 138 159 208 257 323 355
#     4  10  21  39  63  97 122 161 207 271 297 370
#     4   9  18  34  63  93 116 151 207 265 296 361
#     4  12  22  40  62  96 124 160 206 266 304 370
#     4   9  18  37  63  87 121 157 212 250 308 360
#
# _framework density 21.230584
#
# number of rings (size 3 to 8) (size 9 to 14) (size 15 to 20)
#    0.857    0.571    4.286    1.714    0.000    2.857 
#    0.000    0.714    0.000    0.000    0.000    0.000 
#    0.000    0.000    0.000    0.000    0.000    0.000 
#
# Total GULP energy -78064.106656 kJ/mol
# GULP energy per Si atom -5576.007618 kJ/mol
# Density = 2.118226 g / cm^3
# Si number density = 21.230584 Si / 1000 Ang^3
#
#
#
# Elastic Constant Matrix: (Units=GPa)
#
#
# Indices 1 2 3 4 5 6 
#
# 1 124.9026 29.8122 29.8117 -3.1418 34.1491 -4.4839
# 2 29.8122 41.8603 6.8471 3.0454 4.4405 -5.5380
# 3 29.8117 6.8471 110.7761 2.5343 -2.1124 -5.8549
# 4 -3.1418 3.0454 2.5343 22.1453 -12.9383 0.6646
# 5 34.1491 4.4405 -2.1124 -12.9383 32.1828 -2.0122
# 6 -4.4839 -5.5380 -5.8549 0.6646 -2.0122 35.2287
#
#
#
# Elastic Compliance Matrix: (Units=1/GPa)
#
#
# Indices 1 2 3 4 5 6 
#
# 1 0.015900 -0.008252 -0.004012 -0.007191 -0.018942 -0.000887
# 2 -0.008252 0.030063 0.000723 -0.003452 0.003522 0.004062
# 3 -0.004012 0.000723 0.010220 0.001298 0.005450 0.001588
# 4 -0.007191 -0.003452 0.001298 0.064362 0.034035 -0.000512
# 5 -0.018942 0.003522 0.005450 0.034035 0.064859 0.002111
# 6 -0.000887 0.004062 0.001588 -0.000512 0.002111 0.029306
#
#
# Mechanical properties :
#
#
# Convention : Reuss Voigt Hill
#
# Bulk Modulus (GPa) = 30.21082 45.60899 37.90991
# Shear Modulus (GPa) = 20.09442 31.98255 26.03849
#
# Velocity S-wave (km/s) = 3.07984 3.88550 3.50589
# Velocity P-wave (km/s) = 5.18729 6.45436 5.85520
#
# Compressibility (1/GPa) = 0.03310072
#
# Stress axis : x y z
#
# Youngs Moduli (GPa) = 62.89399 33.26400 97.84269
#
# Poissons Ratio (x) = 0.27450 0.39258
# Poissons Ratio (y) = 0.51901 -0.07078
# Poissons Ratio (z) = 0.25236 -0.02406
#
# Static dielectric constant tensor:
#      x y z
#    x 1.836470 -0.044570 -0.021800 
#    y -0.044570 1.794570 0.004210 
#    z -0.021800 0.004210 1.800810 
# 
# From -- ./inp_files/529271.got.cif
#   From: 2010.05.17/outbox.cif.g08.bks.cpg/sg2_265_cif.got.tgz:529271.got - 2010.06.03 11:33:40.
