data_PCOD9008158
_publ_section_title
;
Structure prediction by ZEFSAII (Michael W. Deem and Ramdas Pophale) SiO2 
 PCOD9008158
Probable space group: P -1
;
_chemical_formula_sum "Si O2"
_cell_formula_units_Z 14
_cell_length_a 11.801386
_cell_length_b 9.915458
_cell_length_c 9.286508
_cell_angle_alpha 41.687120
_cell_angle_beta 65.562644
_cell_angle_gamma 70.319731
_cell_volume 657.265083
_symmetry_space_group_name_H-M "P -1"
_symmetry_group_IT_number 2
_symmetry_cell_setting 'triclinic'
loop_
_space_group_symop_operation_xyz
x,y,z
-x,-y,-z
loop_
_atom_site_type_symbol
_atom_site_label
_atom_site_fract_x
_atom_site_fract_y
_atom_site_fract_z
Si Si1 0.411310 0.407367 0.418994
Si Si2 0.183892 0.341573 0.779114
Si Si3 0.247390 0.512057 0.154573
Si Si4 0.463370 0.972988 0.874772
Si Si5 0.998261 0.639731 0.532221
Si Si6 0.179326 0.893360 0.065952
Si Si7 0.353716 0.360941 0.938788
O O1 0.287252 0.453119 0.541805
O O2 0.362569 0.451064 0.248248
O O3 0.532025 0.533868 0.284100
O O4 0.447470 0.176262 0.627980
O O5 0.069158 0.501085 0.725105
O O6 0.252457 0.291893 0.932634
O O7 0.150750 0.136213 0.875090
O O8 0.181241 0.728135 0.067001
O O9 0.145363 0.340040 0.364954
O O10 0.293361 0.510740 0.968778
O O11 0.326951 0.884055 0.028388
O O12 0.573466 0.826727 0.871483
O O13 0.500000 0.000000 0.000000
O O14 0.083280 0.821645 0.294967
O O15 0.000000 0.500000 0.500000
#
# Coordination Sequence:
#
# PCOD9008158 Si02
#       7
#     2   2   2   2   2   2   2
#     4  11  22  39  63  92 120 166 197 247 309 368
#     4  11  22  39  68  89 114 162 214 241 300 365
#     4  11  24  42  60  91 129 160 201 255 305 354
#     4  11  22  37  65  95 120 154 210 250 300 368
#     4  10  21  41  63  88 119 164 208 247 290 366
#     4  10  21  39  64  88 117 159 209 245 289 370
#     4  12  24  40  61  95 130 152 198 264 307 353
#
# _framework density 21.300384999999999
#
# number of rings (size 3 to 8) (size 9 to 14) (size 15 to 20)
#    0.000    1.143    7.143    0.857    2.000    3.429 
#    2.571    0.714    0.000    0.000    0.000    0.000 
#    0.000    0.000    0.000    0.000    0.000    0.000 
#
# Total GULP energy -78048.133441 kJ/mol
# GULP energy per Si atom -5574.866674 kJ/mol
# Density = 2.125190 g / cm^3
# Si number density = 21.300385 Si / 1000 Ang^3
#
#
#
# Elastic Constant Matrix: (Units=GPa)
#
#
# Indices 1 2 3 4 5 6 
#
# 1 69.5992 3.1357 11.5046 -10.8169 -1.3374 1.3200
# 2 3.1357 64.4107 17.4927 -3.0634 0.3644 0.7346
# 3 11.5046 17.4927 58.1451 -18.7680 -2.8852 2.5795
# 4 -10.8169 -3.0634 -18.7680 24.9182 1.0648 1.4841
# 5 -1.3374 0.3644 -2.8852 1.0648 28.5805 -0.8404
# 6 1.3200 0.7346 2.5795 1.4841 -0.8404 14.8211
#
#
#
# Elastic Compliance Matrix: (Units=1/GPa)
#
#
# Indices 1 2 3 4 5 6 
#
# 1 0.015521 -0.000189 -0.000951 0.006090 0.000353 -0.001797
# 2 -0.000189 0.017028 -0.005930 -0.002448 -0.000721 0.000409
# 3 -0.000951 -0.005930 0.025409 0.018265 0.001746 -0.005774
# 4 0.006090 -0.002448 0.018265 0.056795 -0.000229 -0.009300
# 5 0.000353 -0.000721 0.001746 -0.000229 0.035250 0.001722
# 6 -0.001797 0.000409 -0.005774 -0.009300 0.001722 0.069645
#
#
# Mechanical properties :
#
#
# Convention : Reuss Voigt Hill
#
# Bulk Modulus (GPa) = 22.82166 28.49122 25.65644
# Shear Modulus (GPa) = 20.12940 24.33208 22.23074
#
# Velocity S-wave (km/s) = 3.07746 3.38350 3.23411
# Velocity P-wave (km/s) = 4.83375 5.35435 5.10070
#
# Compressibility (1/GPa) = 0.04381802
#
# Stress axis : x y z
#
# Youngs Moduli (GPa) = 64.42847 58.72708 39.35660
#
# Poissons Ratio (x) = 0.01111 0.03743
# Poissons Ratio (y) = 0.01219 0.23337
# Poissons Ratio (z) = 0.06128 0.34823
#
# Static dielectric constant tensor:
#      x y z
#    x 1.834060 -0.009560 0.018540 
#    y -0.009560 1.807980 -0.053190 
#    z 0.018540 -0.053190 1.806370 
# 
# From -- ./inp_files/236560.got.cif
#   From: 2010.05.17/outbox.cif.g08.bks.cpg/sg2_119_cif.got.tgz:236560.got - 2010.06.03 11:33:40.
