data_PCOD9008445
_publ_section_title
;
Structure prediction by ZEFSAII (Michael W. Deem and Ramdas Pophale) SiO2 
 PCOD9008445
Probable space group: P -1
;
_chemical_formula_sum "Si O2"
_cell_formula_units_Z 16
_cell_length_a 5.234771
_cell_length_b 12.291477
_cell_length_c 12.842878
_cell_angle_alpha 69.648393
_cell_angle_beta 115.837067
_cell_angle_gamma 119.924371
_cell_volume 635.526370
_symmetry_space_group_name_H-M "P -1"
_symmetry_group_IT_number 2
_symmetry_cell_setting 'triclinic'
loop_
_space_group_symop_operation_xyz
x,y,z
-x,-y,-z
loop_
_atom_site_type_symbol
_atom_site_label
_atom_site_fract_x
_atom_site_fract_y
_atom_site_fract_z
Si Si1 0.137307 0.935274 0.436046
Si Si2 0.336933 0.213211 0.738086
Si Si3 0.472857 0.780756 0.833338
Si Si4 0.907949 0.413007 0.674970
Si Si5 0.740796 0.705865 0.084554
Si Si6 0.646764 0.040407 0.898912
Si Si7 0.128065 0.678446 0.530869
Si Si8 0.168024 0.200909 0.326569
O O1 0.047533 0.795002 0.517387
O O2 0.024131 0.875085 0.320678
O O3 0.500000 0.000000 0.500000
O O4 0.039151 0.053015 0.392790
O O5 0.548402 0.328656 0.664097
O O6 0.414678 0.265999 0.849941
O O7 0.467896 0.107333 0.780188
O O8 0.681567 0.796277 0.763219
O O9 0.114189 0.755900 0.754346
O O10 0.608957 0.915832 0.872040
O O11 0.519805 0.679865 0.954180
O O12 0.983511 0.365326 0.592878
O O13 0.110338 0.387636 0.811696
O O14 0.981401 0.558550 0.620073
O O15 0.023244 0.842231 0.067817
O O16 0.500000 0.000000 0.000000
O O17 0.502555 0.721139 0.581968
#
# Coordination Sequence:
#
# PCOD9008445 Si02
#       8
#     2   2   2   2   2   2   2   2
#     4  10  21  39  64  97 136 172 222 282 348 416
#     4  11  21  37  64  97 135 174 226 286 346 406
#     4  12  24  41  67 101 147 183 222 277 354 427
#     4  10  24  44  71  95 131 175 243 297 340 400
#     4  11  23  39  64 102 137 177 234 283 341 413
#     4  11  21  35  62 100 139 179 219 282 342 410
#     4  10  23  48  67  98 130 180 240 294 345 405
#     4  11  26  44  70 104 143 184 226 281 358 433
#
# _framework density 25.175984
#
# number of rings (size 3 to 8) (size 9 to 14) (size 15 to 20)
#    0.000    1.250    3.750    1.875    3.500    2.500 
#    2.250    5.625    0.000    0.000    0.000    0.000 
#    0.000    0.000    0.000    0.000    0.000    0.000 
#
# Total GULP energy -89331.073360 kJ/mol
# GULP energy per Si atom -5583.192085 kJ/mol
# Density = 2.511868 g / cm^3
# Si number density = 25.175984 Si / 1000 Ang^3
#
#
#
# Elastic Constant Matrix: (Units=GPa)
#
#
# Indices 1 2 3 4 5 6 
#
# 1 96.9036 28.1684 54.6018 -9.9821 4.9469 8.0229
# 2 28.1684 113.0582 53.7748 -32.0346 5.9862 -2.9301
# 3 54.6018 53.7748 136.6881 6.3672 4.4364 18.0511
# 4 -9.9821 -32.0346 6.3672 26.5987 15.2209 -7.3333
# 5 4.9469 5.9862 4.4364 15.2209 36.7744 3.0169
# 6 8.0229 -2.9301 18.0511 -7.3333 3.0169 31.8336
#
#
#
# Elastic Compliance Matrix: (Units=1/GPa)
#
#
# Indices 1 2 3 4 5 6 
#
# 1 0.003319 -0.031938 0.017806 -0.070414 0.034486 -0.033362
# 2 -0.031938 -0.082951 0.064592 -0.214899 0.106816 -0.095841
# 3 0.017806 0.064592 -0.038864 0.157481 -0.078920 0.067253
# 4 -0.070414 -0.214899 0.157481 -0.489124 0.246557 -0.227376
# 5 0.034486 0.106816 -0.078920 0.246557 -0.096538 0.111839
# 6 -0.033362 -0.095841 0.067253 -0.227376 0.111839 -0.070114
#
#
# Mechanical properties :
#
#
# Convention : Reuss Voigt Hill
#
# Bulk Modulus (GPa) = -56.89554 68.86000 5.98223
# Shear Modulus (GPa) = -5.67505 33.04832 13.68664
#
# Velocity S-wave (km/s) = -1.50301 3.62704 2.33414
# Velocity P-wave (km/s) = 5.06559 6.70458 3.10573
#
# Compressibility (1/GPa) = -0.01757607
#
# Stress axis : x y z
#
# Youngs Moduli (GPa) = 301.31274 -12.05537 -25.73079
#
# Poissons Ratio (x) = -0.38502 0.45815
# Poissons Ratio (y) = 9.62332 1.66201
# Poissons Ratio (z) = -5.36505 0.77868
#
# Static dielectric constant tensor:
#      x y z
#    x 2.017460 0.047180 0.119450 
#    y 0.047180 1.887450 -0.073090 
#    z 0.119450 -0.073090 2.018520 
# 
# From -- ./inp_files/96753.got.cif
#   From: 2010.05.17/outbox.cif.g08.bks.cpg/sg2_49_cif.got.tgz:96753.got - 2010.06.03 11:33:40.
