data_PCOD9008611
_publ_section_title
;
Structure prediction by ZEFSAII (Michael W. Deem and Ramdas Pophale) SiO2 
 PCOD9008611
Probable space group: P -1
;
_chemical_formula_sum "Si O2"
_cell_formula_units_Z 11
_cell_length_a 7.522873
_cell_length_b 11.565967
_cell_length_c 13.651680
_cell_angle_alpha 147.967014
_cell_angle_beta 74.336766
_cell_angle_gamma 126.449830
_cell_volume 424.010000
_symmetry_space_group_name_H-M "P -1"
_symmetry_group_IT_number 2
_symmetry_cell_setting 'triclinic'
loop_
_space_group_symop_operation_xyz
x,y,z
-x,-y,-z
loop_
_atom_site_type_symbol
_atom_site_label
_atom_site_fract_x
_atom_site_fract_y
_atom_site_fract_z
Si Si1 0.633411 0.988722 0.171931
Si Si2 0.344077 0.046098 0.493537
Si Si3 0.000000 0.500000 0.000000
Si Si4 0.443400 0.416921 0.280860
Si Si5 0.744909 0.635512 0.125133
Si Si6 0.170692 0.380527 0.474432
O O1 0.688395 0.271656 0.324513
O O2 0.647439 0.829842 0.965743
O O3 0.349248 0.688556 0.048979
O O4 0.858066 0.140489 0.330065
O O5 0.536379 0.331345 0.593319
O O6 0.236668 0.158882 0.652992
O O7 0.500000 0.000000 0.500000
O O8 0.114502 0.734246 0.246947
O O9 0.009539 0.259155 0.888769
O O10 0.260744 0.289097 0.310965
O O11 0.722660 0.585893 0.409912
O O12 0.500000 0.500000 0.000000
#
# Coordination Sequence:
#
# PCOD9008611 Si02
#       6
#     2   2   1   2   2   2
#     4  10  22  41  61  93 126 166 211 268 318 385
#     4  11  24  42  66  99 134 175 219 273 328 392
#     4  12  24  44  66  92 134 180 218 270 332 384
#     4  10  22  39  64  94 126 162 218 260 321 391
#     4  11  24  43  67  96 136 171 222 269 329 393
#     4  10  21  39  65  92 124 168 207 263 326 376
#
# _framework density 25.942785000000001
#
# number of rings (size 3 to 8) (size 9 to 14) (size 15 to 20)
#    0.000    1.455    1.818    2.727    2.545    0.000 
#    0.000    1.818    0.000    0.000    0.000    0.000 
#    0.000    0.000    0.000    0.000    0.000    0.000 
#
# Total GULP energy -61427.217841 kJ/mol
# GULP energy per Si atom -5584.292531 kJ/mol
# Density = 2.588374 g / cm^3
# Si number density = 25.942785 Si / 1000 Ang^3
#
#
#
# Elastic Constant Matrix: (Units=GPa)
#
#
# Indices 1 2 3 4 5 6 
#
# 1 169.6823 38.5314 78.4071 -9.7825 -8.4595 -30.2840
# 2 38.5314 103.2404 53.5657 19.3943 1.7710 -15.7046
# 3 78.4071 53.5657 223.3820 -20.4839 -8.8804 -2.8035
# 4 -9.7825 19.3943 -20.4839 45.6742 3.2594 6.0693
# 5 -8.4595 1.7710 -8.8804 3.2594 53.7521 -7.4338
# 6 -30.2840 -15.7046 -2.8035 6.0693 -7.4338 42.6788
#
#
#
# Elastic Compliance Matrix: (Units=1/GPa)
#
#
# Indices 1 2 3 4 5 6 
#
# 1 0.008419 -0.001021 -0.002551 0.000213 0.001712 0.005698
# 2 -0.001021 0.014631 -0.003897 -0.008937 0.000041 0.005682
# 3 -0.002551 -0.003897 0.006684 0.004557 0.000079 -0.003439
# 4 0.000213 -0.008937 0.004557 0.028859 -0.001669 -0.007233
# 5 0.001712 0.000041 0.000079 -0.001669 0.019664 0.004898
# 6 0.005698 0.005682 -0.003439 -0.007233 0.004898 0.031221
#
#
# Mechanical properties :
#
#
# Convention : Reuss Voigt Hill
#
# Bulk Modulus (GPa) = 67.58163 93.03480 80.30822
# Shear Modulus (GPa) = 38.65559 50.14104 44.39831
#
# Velocity S-wave (km/s) = 3.86428 4.40108 4.14139
# Velocity P-wave (km/s) = 6.78359 7.85910 7.34106
#
# Compressibility (1/GPa) = 0.01479692
#
# Stress axis : x y z
#
# Youngs Moduli (GPa) = 118.78387 68.34600 149.60369
#
# Poissons Ratio (x) = 0.06979 0.38163
# Poissons Ratio (y) = 0.12129 0.58296
# Poissons Ratio (z) = 0.30301 0.26632
#
# Static dielectric constant tensor:
#      x y z
#    x 2.560570 0.049210 0.041650 
#    y 0.049210 2.202130 0.121610 
#    z 0.041650 0.121610 1.995160 
# 
# From -- ./inp_files/265468.got.cif
#   From: 2010.05.17/outbox.cif.g08.bks.cpg/sg2_133_cif.got.tgz:265468.got - 2010.06.03 11:33:40.
