data_PCOD9008851
_publ_section_title
;
Structure prediction by ZEFSAII (Michael W. Deem and Ramdas Pophale) SiO2 
 PCOD9008851
Probable space group: P -1
;
_chemical_formula_sum "Si O2"
_cell_formula_units_Z 16
_cell_length_a 7.332729
_cell_length_b 13.167332
_cell_length_c 13.855455
_cell_angle_alpha 40.741636
_cell_angle_beta 68.224264
_cell_angle_gamma 47.880152
_cell_volume 621.072209
_symmetry_space_group_name_H-M "P -1"
_symmetry_group_IT_number 2
_symmetry_cell_setting 'triclinic'
loop_
_space_group_symop_operation_xyz
x,y,z
-x,-y,-z
loop_
_atom_site_type_symbol
_atom_site_label
_atom_site_fract_x
_atom_site_fract_y
_atom_site_fract_z
Si Si1 0.889800 0.406519 0.417204
Si Si2 0.850328 0.245001 0.250671
Si Si3 0.747731 0.042191 0.269591
Si Si4 0.477192 0.421514 0.368327
Si Si5 0.575240 0.812706 0.311488
Si Si6 0.269713 0.177375 0.348260
Si Si7 0.944267 0.845706 0.130751
Si Si8 0.968553 0.825014 0.928304
O O1 0.664268 0.416887 0.408103
O O2 0.758589 0.602769 0.366914
O O3 0.074140 0.199534 0.591050
O O4 0.073327 0.367038 0.321012
O O5 0.597878 0.386206 0.264107
O O6 0.085504 0.156950 0.339307
O O7 0.900729 0.319684 0.088318
O O8 0.833970 0.081449 0.326563
O O9 0.703106 0.915691 0.192950
O O10 0.832795 0.137108 0.115866
O O11 0.453474 0.255653 0.529558
O O12 0.199427 0.637427 0.271092
O O13 0.444860 0.175095 0.237506
O O14 0.293350 0.968019 0.210299
O O15 0.500000 0.000000 0.500000
O O16 0.901379 0.796239 0.067022
O O17 0.000000 0.000000 0.000000
#
# Coordination Sequence:
#
# PCOD9008851 Si02
#       8
#     2   2   2   2   2   2   2   2
#     4  10  21  39  66 104 146 178 231 295 365 416
#     4   9  22  42  68 106 146 189 236 294 367 420
#     4   9  20  40  68 101 148 187 227 293 355 427
#     4  11  23  44  73 108 143 178 239 315 348 424
#     4  12  25  44  73 102 142 189 241 301 362 426
#     4   9  19  35  63 105 144 185 230 291 353 425
#     4  12  29  48  69 103 143 194 246 291 367 444
#     4  10  24  46  71  97 144 201 227 297 360 437
#
# _framework density 25.761901000000002
#
# number of rings (size 3 to 8) (size 9 to 14) (size 15 to 20)
#    0.750    1.000    1.250    1.875    3.500    9.500 
#    6.750    0.000    0.000    3.750    0.000    0.000 
#    0.000    0.000    0.000    0.000    0.000    0.000 
#
# Total GULP energy -89403.237073 kJ/mol
# GULP energy per Si atom -5587.702317 kJ/mol
# Density = 2.570327 g / cm^3
# Si number density = 25.761901 Si / 1000 Ang^3
#
#
#
# Elastic Constant Matrix: (Units=GPa)
#
#
# Indices 1 2 3 4 5 6 
#
# 1 100.2225 23.7963 10.6611 -5.6526 2.5728 -19.0716
# 2 23.7963 153.0633 21.9940 24.0382 -0.9475 -19.3330
# 3 10.6611 21.9940 75.9021 17.1960 3.1182 -6.2028
# 4 -5.6526 24.0382 17.1960 46.3280 11.0144 1.6322
# 5 2.5728 -0.9475 3.1182 11.0144 18.7495 3.0628
# 6 -19.0716 -19.3330 -6.2028 1.6322 3.0628 53.2526
#
#
#
# Elastic Compliance Matrix: (Units=1/GPa)
#
#
# Indices 1 2 3 4 5 6 
#
# 1 0.011529 -0.001756 -0.001507 0.003751 -0.004186 0.003442
# 2 -0.001756 0.007995 -0.000927 -0.004883 0.003321 0.002124
# 3 -0.001507 -0.000927 0.014942 -0.005455 0.000718 0.000990
# 4 0.003751 -0.004883 -0.005455 0.030875 -0.017831 -0.000985
# 5 -0.004186 0.003321 0.000718 -0.017831 0.064988 -0.003401
# 6 0.003442 0.002124 0.000990 -0.000985 -0.003401 0.021123
#
#
# Mechanical properties :
#
#
# Convention : Reuss Voigt Hill
#
# Bulk Modulus (GPa) = 38.33360 49.12120 43.72740
# Shear Modulus (GPa) = 29.66848 41.84845 35.75846
#
# Velocity S-wave (km/s) = 3.39727 4.03480 3.72968
# Velocity P-wave (km/s) = 5.50462 6.38865 5.96304
#
# Compressibility (1/GPa) = 0.02608678
#
# Stress axis : x y z
#
# Youngs Moduli (GPa) = 86.73744 125.07538 66.92398
#
# Poissons Ratio (x) = 0.21965 0.10086
# Poissons Ratio (y) = 0.15233 0.06201
# Poissons Ratio (z) = 0.13072 0.11589
#
# Static dielectric constant tensor:
#      x y z
#    x 2.062960 0.058390 -0.075550 
#    y 0.058390 2.096860 0.127960 
#    z -0.075550 0.127960 2.066470 
# 
# From -- ./inp_files/502810.got.cif
#   From: 2010.05.17/outbox.cif.g08.bks.cpg/sg2_252_cif.got.tgz:502810.got - 2010.06.03 11:33:40.
