data_PCOD9008983
_publ_section_title
;
Structure prediction by ZEFSAII (Michael W. Deem and Ramdas Pophale) SiO2 
 PCOD9008983
Probable space group: P -1
;
_chemical_formula_sum "Si O2"
_cell_formula_units_Z 14
_cell_length_a 5.277646
_cell_length_b 6.200075
_cell_length_c 18.883096
_cell_angle_alpha 84.214513
_cell_angle_beta 89.593315
_cell_angle_gamma 101.486140
_cell_volume 602.196081
_symmetry_space_group_name_H-M "P -1"
_symmetry_group_IT_number 2
_symmetry_cell_setting 'triclinic'
loop_
_space_group_symop_operation_xyz
x,y,z
-x,-y,-z
loop_
_atom_site_type_symbol
_atom_site_label
_atom_site_fract_x
_atom_site_fract_y
_atom_site_fract_z
Si Si1 0.975339 0.844165 0.226373
Si Si2 0.408195 0.550663 0.226204
Si Si3 0.543599 0.854944 0.435416
Si Si4 0.529176 0.609075 0.072504
Si Si5 0.190337 0.371380 0.469306
Si Si6 0.255289 0.139357 0.335473
Si Si7 0.082341 0.872710 0.071875
O O1 0.159191 0.661644 0.235227
O O2 0.057970 0.970250 0.147230
O O3 0.673300 0.731648 0.229703
O O4 0.045897 0.000787 0.288238
O O5 0.411697 0.476927 0.146546
O O6 0.406071 0.346884 0.284155
O O7 0.411962 0.591630 0.441936
O O8 0.816098 0.809862 0.461190
O O9 0.500000 0.000000 0.500000
O O10 0.448270 0.984637 0.367749
O O11 0.360744 0.804902 0.065222
O O12 0.837540 0.667987 0.082098
O O13 0.500000 0.500000 0.000000
O O14 0.140214 0.242513 0.400375
O O15 0.000000 0.500000 0.500000
O O16 0.000000 0.000000 0.000000
#
# Coordination Sequence:
#
# PCOD9008983 Si02
#       7
#     2   2   2   2   2   2   2
#     4  10  24  47  65 100 144 184 232 289 350 410
#     4  10  24  47  65 102 145 180 236 289 343 418
#     4   9  21  44  66  98 128 169 220 271 346 410
#     4  10  21  39  66  96 133 179 227 289 344 397
#     4  10  22  46  70 100 133 167 228 284 341 416
#     4  11  23  45  71 100 134 189 225 285 349 416
#     4  10  21  39  66  95 133 177 233 286 338 406
#
# _framework density 23.248242000000001
#
# number of rings (size 3 to 8) (size 9 to 14) (size 15 to 20)
#    0.000    2.000    0.000    1.714    2.000    3.429 
#   33.429    0.000    0.000    0.000    0.000    0.000 
#    0.000    0.000    0.000    0.000    0.000    0.000 
#
# Total GULP energy -77959.130257 kJ/mol
# GULP energy per Si atom -5568.509304 kJ/mol
# Density = 2.319533 g / cm^3
# Si number density = 23.248242 Si / 1000 Ang^3
#
#
#
# Elastic Constant Matrix: (Units=GPa)
#
#
# Indices 1 2 3 4 5 6 
#
# 1 81.8471 18.1584 19.8179 0.6330 5.7824 -13.4944
# 2 18.1584 80.3194 64.9660 6.3511 8.1838 1.3037
# 3 19.8179 64.9660 173.7242 -3.9463 20.3121 -7.3065
# 4 0.6330 6.3511 -3.9463 50.5151 -4.0787 12.3128
# 5 5.7824 8.1838 20.3121 -4.0787 29.0441 -1.8931
# 6 -13.4944 1.3037 -7.3065 12.3128 -1.8931 39.6014
#
#
#
# Elastic Compliance Matrix: (Units=1/GPa)
#
#
# Indices 1 2 3 4 5 6 
#
# 1 0.013847 -0.002836 -0.000134 -0.001203 -0.001702 0.005080
# 2 -0.002836 0.018885 -0.006829 -0.002391 -0.000455 -0.002127
# 3 -0.000134 -0.006829 0.008875 0.000900 -0.004042 0.001344
# 4 -0.001203 -0.002391 0.000900 0.022100 0.002938 -0.006896
# 5 -0.001702 -0.000455 -0.004042 0.002938 0.038110 -0.000402
# 6 0.005080 -0.002127 0.001344 -0.006896 -0.000402 0.029425
#
#
# Mechanical properties :
#
#
# Convention : Reuss Voigt Hill
#
# Bulk Modulus (GPa) = 45.43734 60.19726 52.81730
# Shear Modulus (GPa) = 31.61010 39.36202 35.48606
#
# Velocity S-wave (km/s) = 3.69138 4.11922 3.91115
# Velocity P-wave (km/s) = 6.14453 6.96946 6.56995
#
# Compressibility (1/GPa) = 0.02200833
#
# Stress axis : x y z
#
# Youngs Moduli (GPa) = 72.22023 52.95112 112.67669
#
# Poissons Ratio (x) = 0.15018 0.01506
# Poissons Ratio (y) = 0.20483 0.76951
# Poissons Ratio (z) = 0.00965 0.36162
#
# Static dielectric constant tensor:
#      x y z
#    x 1.775890 -0.218680 0.101700 
#    y -0.218680 1.555900 0.039880 
#    z 0.101700 0.039880 1.939950 
# 
# From -- ./inp_files/7963.got.cif
#   From: 2010.05.17/outbox.cif.g08.bks.cpg/sg2_4_cif.got.tgz:7963.got - 2010.06.03 11:33:40.
