data_PCOD9008378
_publ_section_title
;
Structure prediction by ZEFSAII (Michael W. Deem and Ramdas Pophale) SiO2 
 PCOD9008378
Probable space group: P -1
;
_chemical_formula_sum "Si O2"
_cell_formula_units_Z 16
_cell_length_a 9.149197
_cell_length_b 18.497748
_cell_length_c 7.705622
_cell_angle_alpha 116.786354
_cell_angle_beta 95.232373
_cell_angle_gamma 46.013331
_cell_volume 786.091772
_symmetry_space_group_name_H-M "P -1"
_symmetry_group_IT_number 2
_symmetry_cell_setting 'triclinic'
loop_
_space_group_symop_operation_xyz
x,y,z
-x,-y,-z
loop_
_atom_site_type_symbol
_atom_site_label
_atom_site_fract_x
_atom_site_fract_y
_atom_site_fract_z
Si Si1 0.288975 0.550896 0.313797
Si Si2 0.885644 0.470197 0.045487
Si Si3 0.432079 0.008192 0.694466
Si Si4 0.660347 0.182662 0.132356
Si Si5 0.415937 0.418211 0.544591
Si Si6 0.863956 0.784737 0.677206
Si Si7 0.265681 0.246077 0.045927
Si Si8 0.094614 0.067877 0.935691
O O1 0.269834 0.508229 0.089463
O O2 0.409077 0.722170 0.631344
O O3 0.473103 0.544872 0.330532
O O4 0.059563 0.688500 0.465880
O O5 0.085019 0.331851 0.974409
O O6 0.755261 0.541450 0.286027
O O7 0.000000 0.500000 0.000000
O O8 0.213845 0.046529 0.749340
O O9 0.500000 0.000000 0.500000
O O10 0.631217 0.882220 0.668762
O O11 0.393976 0.110592 0.888422
O O12 0.443158 0.243815 0.076713
O O13 0.767563 0.061008 0.104545
O O14 0.845572 0.142410 0.982753
O O15 0.325419 0.480554 0.412425
O O16 0.856314 0.716815 0.745223
O O17 0.897628 0.856592 0.856643
#
# Coordination Sequence:
#
# PCOD9008378 Si02
#       8
#     2   2   2   2   2   2   2   2
#     4  11  24  44  69  95 132 173 226 270 326 398
#     4  12  27  43  64 102 134 171 225 278 327 390
#     4  11  22  38  63  98 131 172 219 267 326 392
#     4  11  21  39  69  92 130 169 221 267 330 396
#     4  11  25  44  68  95 130 183 217 267 341 387
#     4  11  19  42  66  96 124 175 222 259 326 394
#     4  11  22  40  65  94 131 172 223 269 324 392
#     4  10  21  39  64  95 124 169 217 265 328 391
#
# _framework density 20.353857999999999
#
# number of rings (size 3 to 8) (size 9 to 14) (size 15 to 20)
#    0.000    1.000    5.000    2.625    1.750    2.000 
#    0.000    4.375    0.000    0.000    0.000    0.000 
#    0.000    0.000    0.000    0.000    0.000    0.000 
#
# Total GULP energy -89362.605933 kJ/mol
# GULP energy per Si atom -5585.162871 kJ/mol
# Density = 2.030753 g / cm^3
# Si number density = 20.353858 Si / 1000 Ang^3
#
#
#
# Elastic Constant Matrix: (Units=GPa)
#
#
# Indices 1 2 3 4 5 6 
#
# 1 120.0555 25.9643 32.1718 -11.2948 -18.4596 8.0804
# 2 25.9643 68.3172 17.1947 -6.3490 -2.9580 0.0470
# 3 32.1718 17.1947 58.8599 -5.9262 -17.5231 7.5763
# 4 -11.2948 -6.3490 -5.9262 34.7864 -2.0373 0.6017
# 5 -18.4596 -2.9580 -17.5231 -2.0373 34.8573 -7.8972
# 6 8.0804 0.0470 7.5763 0.6017 -7.8972 19.0627
#
#
#
# Elastic Compliance Matrix: (Units=1/GPa)
#
#
# Indices 1 2 3 4 5 6 
#
# 1 0.010786 -0.002811 -0.003557 0.002615 0.003427 -0.001814
# 2 -0.002811 0.016755 -0.003932 0.001352 -0.001501 0.002049
# 3 -0.003557 -0.003932 0.023527 0.002725 0.008801 -0.004273
# 4 0.002615 0.001352 0.002725 0.030585 0.004349 -0.001358
# 5 0.003427 -0.001501 0.008801 0.004349 0.037414 0.010416
# 6 -0.001814 0.002049 -0.004273 -0.001358 0.010416 0.059279
#
#
# Mechanical properties :
#
#
# Convention : Reuss Voigt Hill
#
# Bulk Modulus (GPa) = 32.82307 44.21047 38.51677
# Shear Modulus (GPa) = 23.91174 29.20140 26.55657
#
# Velocity S-wave (km/s) = 3.43126 3.79183 3.61604
# Velocity P-wave (km/s) = 5.64440 6.39834 6.03316
#
# Compressibility (1/GPa) = 0.03046638
#
# Stress axis : x y z
#
# Youngs Moduli (GPa) = 92.71537 59.68356 42.50454
#
# Poissons Ratio (x) = 0.16779 0.15119
# Poissons Ratio (y) = 0.26065 0.16714
# Poissons Ratio (z) = 0.32979 0.23470
#
# Static dielectric constant tensor:
#      x y z
#    x 1.746510 0.002210 -0.024030 
#    y 0.002210 1.741400 -0.012610 
#    z -0.024030 -0.012610 1.762390 
# 
# From -- ./inp_files/193048.got.cif
#   From: 2010.05.17/outbox.cif.g08.bks.cpg/sg2_97_cif.got.tgz:193048.got - 2010.06.03 11:33:40.
