data_PCOD9008900
_publ_section_title
;
Structure prediction by ZEFSAII (Michael W. Deem and Ramdas Pophale) SiO2 
 PCOD9008900
Probable space group: P -1
;
_chemical_formula_sum "Si O2"
_cell_formula_units_Z 16
_cell_length_a 18.191826
_cell_length_b 9.002428
_cell_length_c 21.872388
_cell_angle_alpha 136.788234
_cell_angle_beta 19.784323
_cell_angle_gamma 144.329838
_cell_volume 695.404881
_symmetry_space_group_name_H-M "P -1"
_symmetry_group_IT_number 2
_symmetry_cell_setting 'triclinic'
loop_
_space_group_symop_operation_xyz
x,y,z
-x,-y,-z
loop_
_atom_site_type_symbol
_atom_site_label
_atom_site_fract_x
_atom_site_fract_y
_atom_site_fract_z
Si Si1 0.596125 0.456205 0.975273
Si Si2 0.938632 0.668538 0.954169
Si Si3 0.641992 0.090714 0.051332
Si Si4 0.847275 0.126499 0.286946
Si Si5 0.950987 0.216595 0.965442
Si Si6 0.598089 0.365940 0.610466
Si Si7 0.157101 0.110541 0.473291
Si Si8 0.830891 0.586138 0.623443
O O1 0.898146 0.645979 0.807724
O O2 0.491141 0.152457 0.962874
O O3 0.500000 0.500000 0.000000
O O4 0.442906 0.509212 0.161340
O O5 0.839761 0.365572 0.946755
O O6 0.675716 0.669586 0.169429
O O7 0.069038 0.783850 0.821949
O O8 0.117170 0.818216 0.919068
O O9 0.770430 0.057600 0.001590
O O10 0.413791 0.110413 0.263829
O O11 0.614479 0.134416 0.501808
O O12 0.834058 0.858553 0.227425
O O13 0.000000 0.500000 0.000000
O O14 0.745536 0.591627 0.511326
O O15 0.769455 0.474341 0.569996
O O16 0.000000 0.000000 0.500000
O O17 0.987132 0.899164 0.593530
O O18 0.000000 0.500000 0.500000
#
# Coordination Sequence:
#
# PCOD9008900 Si02
#       8
#     2   2   2   2   2   2   2   2
#     4  12  22  36  61  98 129 164 211 255 325 382
#     4  10  23  43  66  93 125 174 213 264 312 368
#     4  10  21  39  66  91 131 169 209 259 320 381
#     4  12  23  40  70  94 128 165 215 263 319 388
#     4  10  23  44  68  89 124 170 218 267 316 370
#     4  10  22  41  60  96 128 164 212 259 320 375
#     4   9  19  37  57  87 132 168 198 254 313 378
#     4  11  22  35  57  91 136 173 200 259 317 385
#
# _framework density 23.008179999999999
#
# number of rings (size 3 to 8) (size 9 to 14) (size 15 to 20)
#    0.000    1.500    2.500    3.375    1.750    1.000 
#    0.000    0.000    2.750    3.750    0.000    0.000 
#    0.000    0.000    0.000    0.000    0.000    0.000 
#
# Total GULP energy -89321.665198 kJ/mol
# GULP energy per Si atom -5582.604075 kJ/mol
# Density = 2.295581 g / cm^3
# Si number density = 23.008180 Si / 1000 Ang^3
#
#
#
# Elastic Constant Matrix: (Units=GPa)
#
#
# Indices 1 2 3 4 5 6 
#
# 1 119.4313 32.7338 24.2969 2.9456 -3.7170 -1.0993
# 2 32.7338 113.2060 25.3285 14.1161 3.1702 1.1441
# 3 24.2969 25.3285 102.1199 10.0903 3.4665 -12.7103
# 4 2.9456 14.1161 10.0903 42.7786 3.1467 1.1328
# 5 -3.7170 3.1702 3.4665 3.1467 25.1366 4.9642
# 6 -1.0993 1.1441 -12.7103 1.1328 4.9642 39.4349
#
#
#
# Elastic Compliance Matrix: (Units=1/GPa)
#
#
# Indices 1 2 3 4 5 6 
#
# 1 0.009457 -0.002433 -0.001823 0.000448 0.002003 -0.000519
# 2 -0.002433 0.010306 -0.001769 -0.002728 -0.000928 -0.000742
# 3 -0.001823 -0.001769 0.011429 -0.001933 -0.002173 0.004013
# 4 0.000448 -0.002728 -0.001933 0.024893 -0.002249 -0.000963
# 5 0.002003 -0.000928 -0.002173 -0.002249 0.041929 -0.005831
# 6 -0.000519 -0.000742 0.004013 -0.000963 -0.005831 0.027421
#
#
# Mechanical properties :
#
#
# Convention : Reuss Voigt Hill
#
# Bulk Modulus (GPa) = 52.24036 55.49728 53.86882
# Shear Modulus (GPa) = 34.75446 38.29655 36.52550
#
# Velocity S-wave (km/s) = 3.89077 4.08422 3.98867
# Velocity P-wave (km/s) = 6.55275 6.81280 6.68404
#
# Compressibility (1/GPa) = 0.01914229
#
# Stress axis : x y z
#
# Youngs Moduli (GPa) = 105.73687 97.02654 87.49521
#
# Poissons Ratio (x) = 0.23611 0.15954
# Poissons Ratio (y) = 0.25730 0.15474
# Poissons Ratio (z) = 0.19280 0.17160
#
# Static dielectric constant tensor:
#      x y z
#    x 2.022790 0.046180 -0.015220 
#    y 0.046180 1.985450 0.009130 
#    z -0.015220 0.009130 1.826400 
# 
# From -- ./inp_files/306983.got.cif
#   From: 2010.05.17/outbox.cif.g08.bks.cpg/sg2_154_cif.got.tgz:306983.got - 2010.06.03 11:33:40.
