data_PCOD9008831
_publ_section_title
;
Structure prediction by ZEFSAII (Michael W. Deem and Ramdas Pophale) SiO2 
 PCOD9008831
Probable space group: P -1
;
_chemical_formula_sum "Si O2"
_cell_formula_units_Z 12
_cell_length_a 5.045086
_cell_length_b 21.257253
_cell_length_c 11.827192
_cell_angle_alpha 154.201121
_cell_angle_beta 74.388422
_cell_angle_gamma 106.475253
_cell_volume 529.072642
_symmetry_space_group_name_H-M "P -1"
_symmetry_group_IT_number 2
_symmetry_cell_setting 'triclinic'
loop_
_space_group_symop_operation_xyz
x,y,z
-x,-y,-z
loop_
_atom_site_type_symbol
_atom_site_label
_atom_site_fract_x
_atom_site_fract_y
_atom_site_fract_z
Si Si1 0.476729 0.191901 0.598248
Si Si2 0.497468 0.546804 0.818782
Si Si3 0.253105 0.403368 0.809463
Si Si4 0.901775 0.409632 0.255210
Si Si5 0.165465 0.012159 0.883635
Si Si6 0.746972 0.104863 0.893465
O O1 0.262639 0.257572 0.643061
O O2 0.729656 0.143771 0.415713
O O3 0.329803 0.037527 0.406174
O O4 0.569462 0.306446 0.869835
O O5 0.356843 0.406863 0.674573
O O6 0.364131 0.547863 0.712681
O O7 0.828522 0.561179 0.807707
O O8 0.500000 0.500000 0.000000
O O9 0.000000 0.500000 0.000000
O O10 0.000000 0.500000 0.500000
O O11 0.840048 0.244627 0.035944
O O12 0.459128 0.112790 0.008522
O O13 0.977085 0.070985 0.902666
O O14 0.000000 0.000000 0.000000
#
# Coordination Sequence:
#
# PCOD9008831 Si02
#       6
#     2   2   2   2   2   2
#     4   9  24  40  72 105 139 162 235 286 344 401
#     4  11  24  43  70  96 131 185 223 282 349 389
#     4  10  21  39  66 101 136 167 216 278 343 404
#     4  12  27  48  64  93 138 185 238 274 330 415
#     4  10  22  42  67 103 141 174 215 278 352 405
#     4  10  24  43  67 101 137 173 235 279 337 403
#
# _framework density 22.681196
#
# number of rings (size 3 to 8) (size 9 to 14) (size 15 to 20)
#    1.000    0.667    0.000    4.000    7.000    2.667 
#    3.000    0.000    0.000    0.000    0.000    0.000 
#    0.000    0.000    0.000    0.000    0.000    0.000 
#
# Total GULP energy -66954.717281 kJ/mol
# GULP energy per Si atom -5579.559773 kJ/mol
# Density = 2.262957 g / cm^3
# Si number density = 22.681196 Si / 1000 Ang^3
#
#
#
# Elastic Constant Matrix: (Units=GPa)
#
#
# Indices 1 2 3 4 5 6 
#
# 1 142.0436 4.4232 -4.7009 -2.2692 -10.5524 -4.8078
# 2 4.4232 54.0812 -4.6953 5.1296 8.1754 -2.6157
# 3 -4.7009 -4.6953 49.2523 -7.2175 17.8788 2.5316
# 4 -2.2692 5.1296 -7.2175 32.6301 10.6901 0.2129
# 5 -10.5524 8.1754 17.8788 10.6901 22.6121 -8.9692
# 6 -4.8078 -2.6157 2.5316 0.2129 -8.9692 47.4689
#
#
#
# Elastic Compliance Matrix: (Units=1/GPa)
#
#
# Indices 1 2 3 4 5 6 
#
# 1 0.007749 -0.001987 -0.003587 -0.003151 0.009739 0.002721
# 2 -0.001987 0.022168 0.010955 0.006007 -0.021925 -0.003734
# 3 -0.003587 0.010955 0.050185 0.030793 -0.065828 -0.015012
# 4 -0.003151 0.006007 0.030793 0.055920 -0.059643 -0.013151
# 5 0.009739 -0.021925 -0.065828 -0.059643 0.149561 0.031816
# 6 0.002721 -0.003734 -0.015012 -0.013151 0.031816 0.028007
#
#
# Mechanical properties :
#
#
# Convention : Reuss Voigt Hill
#
# Bulk Modulus (GPa) = 11.00541 26.15899 18.58220
# Shear Modulus (GPa) = 15.00975 37.23222 26.12098
#
# Velocity S-wave (km/s) = 2.57528 4.05599 3.39729
# Velocity P-wave (km/s) = 3.70210 5.78733 4.85792
#
# Compressibility (1/GPa) = 0.09086439
#
# Stress axis : x y z
#
# Youngs Moduli (GPa) = 129.05659 45.10947 19.92610
#
# Poissons Ratio (x) = 0.08963 0.07147
# Poissons Ratio (y) = 0.25643 -0.21829
# Poissons Ratio (z) = 0.46289 -0.49416
#
# Static dielectric constant tensor:
#      x y z
#    x 1.893990 0.089460 -0.027600 
#    y 0.089460 1.948650 -0.000310 
#    z -0.027600 -0.000310 1.897450 
# 
# From -- ./inp_files/370168.got.cif
#   From: 2010.05.17/outbox.cif.g08.bks.cpg/sg2_186_cif.got.tgz:370168.got - 2010.06.03 11:33:40.
