data_PCOD9008071
_publ_section_title
;
Structure prediction by ZEFSAII (Michael W. Deem and Ramdas Pophale) SiO2 
 PCOD9008071
Probable space group: P -1
;
_chemical_formula_sum "Si O2"
_cell_formula_units_Z 16
_cell_length_a 8.797616
_cell_length_b 8.004265
_cell_length_c 10.904660
_cell_angle_alpha 98.171852
_cell_angle_beta 94.636646
_cell_angle_gamma 110.553786
_cell_volume 704.590593
_symmetry_space_group_name_H-M "P -1"
_symmetry_group_IT_number 2
_symmetry_cell_setting 'triclinic'
loop_
_space_group_symop_operation_xyz
x,y,z
-x,-y,-z
loop_
_atom_site_type_symbol
_atom_site_label
_atom_site_fract_x
_atom_site_fract_y
_atom_site_fract_z
Si Si1 0.477669 0.773328 0.208025
Si Si2 0.399709 0.324334 0.549706
Si Si3 0.323366 0.004560 0.948397
Si Si4 0.051332 0.150740 0.416016
Si Si5 0.806951 0.843765 0.831705
Si Si6 0.152172 0.671178 0.719633
Si Si7 0.495381 0.822444 0.671790
Si Si8 0.894572 0.498433 0.871826
O O1 0.542050 0.680792 0.310438
O O2 0.608724 0.812700 0.109945
O O3 0.285763 0.661615 0.155549
O O4 0.497442 0.977774 0.270671
O O5 0.500000 0.500000 0.500000
O O6 0.214535 0.290018 0.501192
O O7 0.443571 0.170858 0.462012
O O8 0.223878 0.826888 0.845497
O O9 0.204571 0.021606 0.049327
O O10 0.500000 0.000000 0.000000
O O11 0.087703 0.081739 0.277254
O O12 0.927973 0.248601 0.383719
O O13 0.000000 0.000000 0.500000
O O14 0.622881 0.773252 0.759464
O O15 0.855756 0.682043 0.870827
O O16 0.318444 0.670153 0.671680
O O17 0.012044 0.506362 0.762117
O O18 0.000000 0.500000 0.000000
#
# Coordination Sequence:
#
# PCOD9008071 Si02
#       8
#     2   2   2   2   2   2   2   2
#     4  11  22  40  67  93 128 171 223 264 324 391
#     4  11  23  44  66  92 131 172 223 268 325 400
#     4  11  20  39  66  96 129 172 226 267 315 399
#     4  10  21  39  63  96 129 163 215 277 323 377
#     4  10  22  41  66  93 128 176 218 259 334 388
#     4  10  21  40  63  91 136 164 215 275 326 374
#     4  10  21  41  70  91 121 179 224 262 326 396
#     4  11  25  42  60  98 139 166 210 276 330 383
#
# _framework density 22.708223
#
# number of rings (size 3 to 8) (size 9 to 14) (size 15 to 20)
#    0.000    1.500    2.500    4.875    0.000    3.500 
#    4.500    5.000    0.000    0.000    0.000    0.000 
#    0.000    0.000    0.000    0.000    0.000    0.000 
#
# Total GULP energy -89325.564688 kJ/mol
# GULP energy per Si atom -5582.847793 kJ/mol
# Density = 2.265654 g / cm^3
# Si number density = 22.708223 Si / 1000 Ang^3
#
#
#
# Elastic Constant Matrix: (Units=GPa)
#
#
# Indices 1 2 3 4 5 6 
#
# 1 86.4243 0.9037 20.2281 -7.9411 19.7614 4.1464
# 2 0.9037 75.1168 26.6956 -10.0563 5.2520 11.3827
# 3 20.2281 26.6956 105.8690 -25.9585 20.1600 -6.2879
# 4 -7.9411 -10.0563 -25.9585 40.4480 -5.6159 9.1439
# 5 19.7614 5.2520 20.1600 -5.6159 31.7712 0.8604
# 6 4.1464 11.3827 -6.2879 9.1439 0.8604 35.5819
#
#
#
# Elastic Compliance Matrix: (Units=1/GPa)
#
#
# Indices 1 2 3 4 5 6 
#
# 1 0.013901 0.001454 -0.001272 0.001790 -0.007693 -0.002584
# 2 0.001454 0.016189 -0.003889 0.003323 -0.000339 -0.006881
# 3 -0.001272 -0.003889 0.013451 0.006034 -0.006098 0.002366
# 4 0.001790 0.003323 0.006034 0.031711 0.000340 -0.008363
# 5 -0.007693 -0.000339 -0.006098 0.000340 0.040276 -0.001134
# 6 -0.002584 -0.006881 0.002366 -0.008363 -0.001134 0.033201
#
#
# Mechanical properties :
#
#
# Convention : Reuss Voigt Hill
#
# Bulk Modulus (GPa) = 27.68164 40.34053 34.01108
# Shear Modulus (GPa) = 29.72911 36.19907 32.96409
#
# Velocity S-wave (km/s) = 3.62218 3.99694 3.81417
# Velocity P-wave (km/s) = 5.45071 6.25332 5.86576
#
# Compressibility (1/GPa) = 0.03612503
#
# Stress axis : x y z
#
# Youngs Moduli (GPa) = 71.93791 61.77196 74.34553
#
# Poissons Ratio (x) = -0.08982 0.09459
# Poissons Ratio (y) = -0.10460 0.28915
# Poissons Ratio (z) = 0.09152 0.24025
#
# Static dielectric constant tensor:
#      x y z
#    x 2.027450 0.034650 0.101100 
#    y 0.034650 1.859480 0.081130 
#    z 0.101100 0.081130 2.161440 
# 
# From -- ./inp_files/379236.got.cif
#   From: 2010.05.17/outbox.cif.g08.bks.cpg/sg2_190_cif.got.tgz:379236.got - 2010.06.03 11:33:40.
