data_PCOD9008335
_publ_section_title
;
Structure prediction by ZEFSAII (Michael W. Deem and Ramdas Pophale) SiO2 
 PCOD9008335
Probable space group: P -1
;
_chemical_formula_sum "Si O2"
_cell_formula_units_Z 15
_cell_length_a 13.439240
_cell_length_b 16.859967
_cell_length_c 11.792672
_cell_angle_alpha 130.571072
_cell_angle_beta 35.093079
_cell_angle_gamma 155.095161
_cell_volume 598.657950
_symmetry_space_group_name_H-M "P -1"
_symmetry_group_IT_number 2
_symmetry_cell_setting 'triclinic'
loop_
_space_group_symop_operation_xyz
x,y,z
-x,-y,-z
loop_
_atom_site_type_symbol
_atom_site_label
_atom_site_fract_x
_atom_site_fract_y
_atom_site_fract_z
Si Si1 0.418322 0.863659 0.600807
Si Si2 0.876899 0.175450 0.767922
Si Si3 0.000000 0.000000 0.500000
Si Si4 0.510680 0.473888 0.834547
Si Si5 0.828276 0.563577 0.056822
Si Si6 0.764558 0.252422 0.581260
Si Si7 0.021261 0.571316 0.235363
Si Si8 0.246610 0.153429 0.646827
O O1 0.163060 0.736593 0.825841
O O2 0.267544 0.733084 0.505737
O O3 0.731249 0.949968 0.415716
O O4 0.497658 0.023522 0.643682
O O5 0.915260 0.280731 0.731573
O O6 0.934823 0.086624 0.598397
O O7 0.132279 0.341807 0.784395
O O8 0.500000 0.000000 0.000000
O O9 0.017029 0.969087 0.321206
O O10 0.254382 0.249334 0.822558
O O11 0.876256 0.614934 0.612883
O O12 0.500000 0.500000 0.000000
O O13 0.449998 0.536521 0.861825
O O14 0.826109 0.444242 0.995194
O O15 0.777332 0.342039 0.753210
O O16 0.616322 0.353080 0.424414
#
# Coordination Sequence:
#
# PCOD9008335 Si02
#       8
#     2   2   1   2   2   2   2   2
#     4  10  21  41  65  91 129 176 219 269 333 395
#     4  12  25  46  68  97 134 177 223 276 334 399
#     4  12  24  44  66  96 134 172 216 278 328 396
#     4  11  22  40  63  97 130 168 217 277 331 391
#     4  11  22  41  67  96 129 171 222 276 329 390
#     4  10  21  39  64  93 130 171 219 270 329 404
#     4  10  23  42  67  95 126 176 221 268 329 406
#     4  10  23  42  65  94 129 172 220 267 335 395
#
# _framework density 25.056044
#
# number of rings (size 3 to 8) (size 9 to 14) (size 15 to 20)
#    0.000    1.333    2.667    3.600    1.867    2.133 
#    9.600    0.667    0.000    0.000    0.000    0.000 
#    0.000    0.000    0.000    0.000    0.000    0.000 
#
# Total GULP energy -83644.157388 kJ/mol
# GULP energy per Si atom -5576.277159 kJ/mol
# Density = 2.499902 g / cm^3
# Si number density = 25.056044 Si / 1000 Ang^3
#
#
#
# Elastic Constant Matrix: (Units=GPa)
#
#
# Indices 1 2 3 4 5 6 
#
# 1 148.2667 12.2905 18.0441 21.1199 8.5436 16.1223
# 2 12.2905 55.1122 24.0023 21.0778 5.3941 -9.1529
# 3 18.0441 24.0023 62.8496 39.6702 -3.3091 2.9276
# 4 21.1199 21.0778 39.6702 38.6684 -4.6656 -3.7604
# 5 8.5436 5.3941 -3.3091 -4.6656 42.3809 15.5163
# 6 16.1223 -9.1529 2.9276 -3.7604 15.5163 38.6409
#
#
#
# Elastic Compliance Matrix: (Units=1/GPa)
#
#
# Indices 1 2 3 4 5 6 
#
# 1 0.007998 -0.000888 0.002738 -0.007168 -0.000521 -0.004243
# 2 -0.000888 0.026186 -0.005288 -0.008411 -0.007909 0.009331
# 3 0.002738 -0.005288 0.049715 -0.050454 0.002933 -0.012249
# 4 -0.007168 -0.008411 -0.050454 0.087741 0.003921 0.011785
# 5 -0.000521 -0.007909 0.002933 0.003921 0.030382 -0.013697
# 6 -0.004243 0.009331 -0.012249 0.011785 -0.013697 0.037435
#
#
# Mechanical properties :
#
#
# Convention : Reuss Voigt Hill
#
# Bulk Modulus (GPa) = 12.98303 41.65580 27.31941
# Shear Modulus (GPa) = 18.38182 38.06415 28.22299
#
# Velocity S-wave (km/s) = 2.71150 3.90187 3.35982
# Velocity P-wave (km/s) = 3.87244 6.07952 5.09688
#
# Compressibility (1/GPa) = 0.07702365
#
# Stress axis : x y z
#
# Youngs Moduli (GPa) = 125.03892 38.18775 20.11449
#
# Poissons Ratio (x) = 0.03391 -0.05507
# Poissons Ratio (y) = 0.11103 0.10636
# Poissons Ratio (z) = -0.34233 0.20192
#
# Static dielectric constant tensor:
#      x y z
#    x 2.021140 0.035620 0.078710 
#    y 0.035620 2.090550 0.033390 
#    z 0.078710 0.033390 2.003120 
# 
# From -- ./inp_files/254219.got.cif
#   From: 2010.05.17/outbox.cif.g08.bks.cpg/sg2_128_cif.got.tgz:254219.got - 2010.06.03 11:33:40.
