data_PCOD9008452
_publ_section_title
;
Structure prediction by ZEFSAII (Michael W. Deem and Ramdas Pophale) SiO2 
 PCOD9008452
Probable space group: P -1
;
_chemical_formula_sum "Si O2"
_cell_formula_units_Z 16
_cell_length_a 14.502067
_cell_length_b 9.608758
_cell_length_c 13.478605
_cell_angle_alpha 77.562748
_cell_angle_beta 54.602985
_cell_angle_gamma 33.304755
_cell_volume 672.291870
_symmetry_space_group_name_H-M "P -1"
_symmetry_group_IT_number 2
_symmetry_cell_setting 'triclinic'
loop_
_space_group_symop_operation_xyz
x,y,z
-x,-y,-z
loop_
_atom_site_type_symbol
_atom_site_label
_atom_site_fract_x
_atom_site_fract_y
_atom_site_fract_z
Si Si1 0.263463 0.288249 0.527520
Si Si2 0.010962 0.820042 0.505098
Si Si3 0.928755 0.909571 0.307243
Si Si4 0.751196 0.191026 0.952986
Si Si5 0.462211 0.396173 0.806299
Si Si6 0.008886 0.363156 0.166319
Si Si7 0.262239 0.342995 0.042340
Si Si8 0.502302 0.240071 0.599571
O O1 0.237591 0.467823 0.459807
O O2 0.026020 0.554637 0.708382
O O3 0.500000 0.000000 0.500000
O O4 0.294105 0.119589 0.460694
O O5 0.988478 0.825944 0.399966
O O6 0.000000 0.000000 0.500000
O O7 0.760976 0.060212 0.685694
O O8 0.028416 0.953613 0.205043
O O9 0.091135 0.617321 0.186735
O O10 0.636847 0.185090 0.439582
O O11 0.500000 0.500000 0.000000
O O12 0.684897 0.316434 0.086548
O O13 0.799923 0.970503 0.939271
O O14 0.447909 0.410938 0.695128
O O15 0.360191 0.360059 0.910552
O O16 0.751690 0.565645 0.278514
O O17 0.103481 0.410139 0.064100
O O18 0.500000 0.000000 0.000000
#
# Coordination Sequence:
#
# PCOD9008452 Si02
#       8
#     2   2   2   2   2   2   2   2
#     4  10  21  39  64  98 130 170 221 278 330 400
#     4  11  22  40  68  99 133 173 227 284 340 393
#     4  10  22  38  64  92 130 165 223 282 329 399
#     4  11  22  42  64  94 132 177 222 278 343 408
#     4  10  24  40  62  97 132 168 228 281 332 404
#     4  11  22  40  68  89 132 175 225 276 337 408
#     4  11  22  37  63  95 126 173 217 273 338 400
#     4  10  23  41  63  94 128 173 224 280 339 390
#
# _framework density 23.799188000000001
#
# number of rings (size 3 to 8) (size 9 to 14) (size 15 to 20)
#    0.000    1.500    1.250    4.500    1.750    2.500 
#    0.000    1.250    0.000    0.000    0.000    0.000 
#    0.000    0.000    0.000    0.000    0.000    0.000 
#
# Total GULP energy -89156.386478 kJ/mol
# GULP energy per Si atom -5572.274155 kJ/mol
# Density = 2.374502 g / cm^3
# Si number density = 23.799188 Si / 1000 Ang^3
#
#
#
# Elastic Constant Matrix: (Units=GPa)
#
#
# Indices 1 2 3 4 5 6 
#
# 1 112.2711 48.0358 47.4761 2.9788 -7.6752 39.4909
# 2 48.0358 94.5979 32.7944 8.9615 5.9912 32.8387
# 3 47.4761 32.7944 143.6348 2.3975 1.0382 19.5795
# 4 2.9788 8.9615 2.3975 19.0098 8.9840 -2.2867
# 5 -7.6752 5.9912 1.0382 8.9840 50.9626 4.9633
# 6 39.4909 32.8387 19.5795 -2.2867 4.9633 40.9030
#
#
#
# Elastic Compliance Matrix: (Units=1/GPa)
#
#
# Indices 1 2 3 4 5 6 
#
# 1 0.016381 -0.002538 -0.002985 -0.004942 0.004986 -0.013230
# 2 -0.002538 0.017013 -0.001389 -0.008921 0.000297 -0.011079
# 3 -0.002985 -0.001389 0.008246 0.000348 -0.000529 0.000133
# 4 -0.004942 -0.008921 0.000348 0.065702 -0.012942 0.017009
# 5 0.004986 0.000297 -0.000529 -0.012942 0.023445 -0.008368
# 6 -0.013230 -0.011079 0.000133 0.017009 -0.008368 0.048018
#
#
# Mechanical properties :
#
#
# Convention : Reuss Voigt Hill
#
# Bulk Modulus (GPa) = 35.95034 67.45738 51.70386
# Shear Modulus (GPa) = 24.76462 36.98823 30.87642
#
# Velocity S-wave (km/s) = 3.22928 3.94659 3.60581
# Velocity P-wave (km/s) = 5.38914 7.01237 6.25365
#
# Compressibility (1/GPa) = 0.02781615
#
# Stress axis : x y z
#
# Youngs Moduli (GPa) = 61.04714 58.77740 121.27656
#
# Poissons Ratio (x) = 0.14919 0.36201
# Poissons Ratio (y) = 0.15495 0.16840
# Poissons Ratio (z) = 0.18223 0.08162
#
# Static dielectric constant tensor:
#      x y z
#    x 2.125690 -0.041370 -0.061390 
#    y -0.041370 1.952530 -0.026090 
#    z -0.061390 -0.026090 1.957420 
# 
# From -- ./inp_files/529653.got.cif
#   From: 2010.05.17/outbox.cif.g08.bks.cpg/sg2_265_cif.got.tgz:529653.got - 2010.06.03 11:33:40.
