data_PCOD9008596
_publ_section_title
;
Structure prediction by ZEFSAII (Michael W. Deem and Ramdas Pophale) SiO2 
 PCOD9008596
Probable space group: P -1
;
_chemical_formula_sum "Si O2"
_cell_formula_units_Z 16
_cell_length_a 25.018630
_cell_length_b 22.637890
_cell_length_c 6.510576
_cell_angle_alpha 54.505986
_cell_angle_beta 45.889034
_cell_angle_gamma 17.467301
_cell_volume 732.865769
_symmetry_space_group_name_H-M "P -1"
_symmetry_group_IT_number 2
_symmetry_cell_setting 'triclinic'
loop_
_space_group_symop_operation_xyz
x,y,z
-x,-y,-z
loop_
_atom_site_type_symbol
_atom_site_label
_atom_site_fract_x
_atom_site_fract_y
_atom_site_fract_z
Si Si1 0.796907 0.910460 0.188632
Si Si2 0.569875 0.254603 0.935832
Si Si3 0.824467 0.348300 0.082576
Si Si4 0.132363 0.292474 0.365177
Si Si5 0.513539 0.573203 0.798133
Si Si6 0.696599 0.756492 0.713149
Si Si7 0.767420 0.831105 0.080922
Si Si8 0.100443 0.988284 0.787633
O O1 0.993235 0.767472 0.074596
O O2 0.621450 0.133108 0.161364
O O3 0.736893 0.896531 0.516577
O O4 0.847391 0.826778 0.003391
O O5 0.373347 0.428002 0.949586
O O6 0.787362 0.082177 0.577615
O O7 0.494946 0.381891 0.048010
O O8 0.719330 0.403001 0.447286
O O9 0.930541 0.197196 0.934820
O O10 0.272188 0.236024 0.160512
O O11 0.894627 0.518571 0.647661
O O12 0.084482 0.326558 0.186598
O O13 0.301076 0.795821 0.796466
O O14 0.500000 0.500000 0.000000
O O15 0.748898 0.778782 0.384484
O O16 0.468379 0.938875 0.862384
O O17 0.000000 0.000000 0.000000
#
# Coordination Sequence:
#
# PCOD9008596 Si02
#       8
#     2   2   2   2   2   2   2   2
#     4  11  26  42  61  98 129 178 213 253 335 396
#     4  11  26  44  64  95 135 169 218 273 324 394
#     4  11  26  44  64  95 135 169 217 275 322 394
#     4  10  21  39  65  92 130 163 215 259 316 383
#     4  11  24  43  70  99 124 170 224 270 332 388
#     4   9  20  40  62  98 120 163 213 266 310 369
#     4  10  21  39  65  91 131 163 212 263 315 379
#     4  11  24  43  70  98 126 169 222 275 327 388
#
# _framework density 21.832101000000002
#
# number of rings (size 3 to 8) (size 9 to 14) (size 15 to 20)
#    0.000    1.500    1.250    2.250    7.000    3.000 
#    0.000    0.000    0.000    0.000    0.000    0.000 
#    0.000    0.000    0.000    0.000    0.000    0.000 
#
# Total GULP energy -89359.824157 kJ/mol
# GULP energy per Si atom -5584.989010 kJ/mol
# Density = 2.178241 g / cm^3
# Si number density = 21.832101 Si / 1000 Ang^3
#
#
#
# Elastic Constant Matrix: (Units=GPa)
#
#
# Indices 1 2 3 4 5 6 
#
# 1 156.9021 33.9840 34.4667 3.9863 17.1088 7.5748
# 2 33.9840 96.3652 28.4709 -1.1961 -7.2197 2.0956
# 3 34.4667 28.4709 65.1437 11.0201 14.5233 12.8804
# 4 3.9863 -1.1961 11.0201 28.1215 0.6907 2.5322
# 5 17.1088 -7.2197 14.5233 0.6907 28.8704 3.2744
# 6 7.5748 2.0956 12.8804 2.5322 3.2744 37.0539
#
#
#
# Elastic Compliance Matrix: (Units=1/GPa)
#
#
# Indices 1 2 3 4 5 6 
#
# 1 0.007835 -0.002484 -0.001997 -0.000297 -0.004210 -0.000375
# 2 -0.002484 0.014193 -0.007705 0.003639 0.008655 0.001370
# 3 -0.001997 -0.007705 0.025351 -0.009109 -0.012571 -0.006235
# 4 -0.000297 0.003639 -0.009109 0.039217 0.004739 -0.000078
# 5 -0.004210 0.008655 -0.012571 0.004739 0.045462 0.000400
# 6 -0.000375 0.001370 -0.006235 -0.000078 0.000400 0.029124
#
#
# Mechanical properties :
#
#
# Convention : Reuss Voigt Hill
#
# Bulk Modulus (GPa) = 43.46392 56.91714 50.19053
# Shear Modulus (GPa) = 25.87678 33.57512 29.72595
#
# Velocity S-wave (km/s) = 3.44650 3.92583 3.69395
# Velocity P-wave (km/s) = 5.98242 6.83202 6.42129
#
# Compressibility (1/GPa) = 0.02300759
#
# Stress axis : x y z
#
# Youngs Moduli (GPa) = 127.63667 70.45498 39.44612
#
# Poissons Ratio (x) = 0.17501 0.07876
# Poissons Ratio (y) = 0.31705 0.30393
# Poissons Ratio (z) = 0.25486 0.54286
#
# Static dielectric constant tensor:
#      x y z
#    x 1.798440 -0.001480 0.011150 
#    y -0.001480 1.801640 0.018850 
#    z 0.011150 0.018850 1.834390 
# 
# From -- ./inp_files/125005.got.cif
#   From: 2010.05.17/outbox.cif.g08.bks.cpg/sg2_63_cif.got.tgz:125005.got - 2010.06.03 11:33:40.
