data_PCOD9008563
_publ_section_title
;
Structure prediction by ZEFSAII (Michael W. Deem and Ramdas Pophale) SiO2 
 PCOD9008563
Probable space group: P -1
;
_chemical_formula_sum "Si O2"
_cell_formula_units_Z 16
_cell_length_a 9.801516
_cell_length_b 17.737834
_cell_length_c 12.193245
_cell_angle_alpha 46.541097
_cell_angle_beta 96.215307
_cell_angle_gamma 134.568950
_cell_volume 756.074843
_symmetry_space_group_name_H-M "P -1"
_symmetry_group_IT_number 2
_symmetry_cell_setting 'triclinic'
loop_
_space_group_symop_operation_xyz
x,y,z
-x,-y,-z
loop_
_atom_site_type_symbol
_atom_site_label
_atom_site_fract_x
_atom_site_fract_y
_atom_site_fract_z
Si Si1 0.094713 0.142237 0.960418
Si Si2 0.407993 0.057136 0.905554
Si Si3 0.588506 0.915753 0.766964
Si Si4 0.722671 0.219404 0.559716
Si Si5 0.269574 0.662552 0.789244
Si Si6 0.420987 0.333987 0.193862
Si Si7 0.977330 0.951445 0.362895
Si Si8 0.634263 0.376177 0.778814
O O1 0.429379 0.342247 0.792157
O O2 0.976064 0.022381 0.185687
O O3 0.000000 0.000000 0.000000
O O4 0.924869 0.137816 0.931622
O O5 0.560583 0.173637 0.685832
O O6 0.525201 0.218334 0.840588
O O7 0.500000 0.000000 0.000000
O O8 0.508480 0.869825 0.678749
O O9 0.901518 0.079272 0.634530
O O10 0.560397 0.006097 0.733495
O O11 0.415679 0.712901 0.018396
O O12 0.736105 0.292523 0.375493
O O13 0.039053 0.396505 0.440131
O O14 0.324240 0.576467 0.874797
O O15 0.000000 0.500000 0.000000
O O16 0.197998 0.144860 0.275196
O O17 0.500000 0.500000 0.000000
O O18 0.294811 0.243857 0.394500
#
# Coordination Sequence:
#
# PCOD9008563 Si02
#       8
#     2   2   2   2   2   2   2   2
#     4   9  20  40  67  86 126 166 200 260 314 368
#     4  11  22  41  66  93 124 164 211 263 319 367
#     4  10  21  39  65  90 126 166 204 257 312 373
#     4  12  23  39  69  91 130 167 206 265 316 364
#     4  11  23  40  61  94 127 162 209 251 310 377
#     4  10  22  40  61  89 123 161 200 255 301 367
#     4   9  20  39  63  88 120 159 208 242 309 370
#     4  10  21  42  64  92 125 166 212 254 312 381
#
# _framework density 21.161926000000001
#
# number of rings (size 3 to 8) (size 9 to 14) (size 15 to 20)
#    0.000    1.750    2.500    1.500    1.750    0.000 
#    6.750    0.625    5.500    0.000    0.000    0.000 
#    0.000    0.000    0.000    0.000    0.000    0.000 
#
# Total GULP energy -89267.486620 kJ/mol
# GULP energy per Si atom -5579.217914 kJ/mol
# Density = 2.111376 g / cm^3
# Si number density = 21.161926 Si / 1000 Ang^3
#
#
#
# Elastic Constant Matrix: (Units=GPa)
#
#
# Indices 1 2 3 4 5 6 
#
# 1 149.8283 17.6970 32.5904 1.0986 -13.9825 15.5091
# 2 17.6970 55.1258 4.8445 19.5103 -2.2360 6.9551
# 3 32.5904 4.8445 39.1751 13.2457 -16.7786 -0.7300
# 4 1.0986 19.5103 13.2457 32.6485 -5.4235 -8.2281
# 5 -13.9825 -2.2360 -16.7786 -5.4235 31.2319 3.4478
# 6 15.5091 6.9551 -0.7300 -8.2281 3.4478 31.1154
#
#
#
# Elastic Compliance Matrix: (Units=1/GPa)
#
#
# Indices 1 2 3 4 5 6 
#
# 1 0.009291 -0.003491 -0.008799 0.004675 0.000310 -0.002855
# 2 -0.003491 0.027637 0.007365 -0.021665 0.001735 -0.010186
# 3 -0.008799 0.007365 0.046918 -0.021007 0.018562 -0.003772
# 4 0.004675 -0.021665 -0.021007 0.055759 -0.002948 0.017091
# 5 0.000310 0.001735 0.018562 -0.002948 0.042358 -0.005579
# 6 -0.002855 -0.010186 -0.003772 0.017091 -0.005579 0.040888
#
#
# Mechanical properties :
#
#
# Convention : Reuss Voigt Hill
#
# Bulk Modulus (GPa) = 13.51418 39.37700 26.44559
# Shear Modulus (GPa) = 19.42762 31.59897 25.51330
#
# Velocity S-wave (km/s) = 3.03321 3.86839 3.47597
# Velocity P-wave (km/s) = 4.32055 6.21292 5.35105
#
# Compressibility (1/GPa) = 0.07399633
#
# Stress axis : x y z
#
# Youngs Moduli (GPa) = 107.63452 36.18318 21.31368
#
# Poissons Ratio (x) = 0.12633 0.18753
# Poissons Ratio (y) = 0.37579 -0.15698
# Poissons Ratio (z) = 0.94705 -0.26650
#
# Static dielectric constant tensor:
#      x y z
#    x 2.004250 0.213050 -0.125320 
#    y 0.213050 2.116890 -0.176280 
#    z -0.125320 -0.176280 1.858630 
# 
# From -- ./inp_files/350235.got.cif
#   From: 2010.05.17/outbox.cif.g08.bks.cpg/sg2_176_cif.got.tgz:350235.got - 2010.06.03 11:33:40.
