data_PCOD9008365
_publ_section_title
;
Structure prediction by ZEFSAII (Michael W. Deem and Ramdas Pophale) SiO2 
 PCOD9008365
Probable space group: P -1
;
_chemical_formula_sum "Si O2"
_cell_formula_units_Z 16
_cell_length_a 9.769042
_cell_length_b 11.931369
_cell_length_c 12.127101
_cell_angle_alpha 106.072951
_cell_angle_beta 54.106883
_cell_angle_gamma 140.432402
_cell_volume 686.149812
_symmetry_space_group_name_H-M "P -1"
_symmetry_group_IT_number 2
_symmetry_cell_setting 'triclinic'
loop_
_space_group_symop_operation_xyz
x,y,z
-x,-y,-z
loop_
_atom_site_type_symbol
_atom_site_label
_atom_site_fract_x
_atom_site_fract_y
_atom_site_fract_z
Si Si1 0.329114 0.715388 0.291616
Si Si2 0.140687 0.133617 0.225846
Si Si3 0.751789 0.776210 0.032529
Si Si4 0.267683 0.101647 0.469345
Si Si5 0.521681 0.040334 0.190921
Si Si6 0.101194 0.831153 0.139555
Si Si7 0.449588 0.504286 0.756041
Si Si8 0.288246 0.558351 0.496342
O O1 0.478053 0.705265 0.137885
O O2 0.499210 0.924613 0.256949
O O3 0.352440 0.676376 0.392692
O O4 0.019399 0.574063 0.367475
O O5 0.413386 0.305770 0.212565
O O6 0.883665 0.035669 0.390695
O O7 0.107623 0.977172 0.173995
O O8 0.178219 0.228750 0.123520
O O9 0.682896 0.644230 0.122143
O O10 0.000000 0.000000 0.000000
O O11 0.446093 0.114878 0.312428
O O12 0.482930 0.303746 0.480917
O O13 0.000000 0.000000 0.500000
O O14 0.288384 0.897332 0.170491
O O15 0.785245 0.165303 0.025346
O O16 0.801270 0.622019 0.241450
O O17 0.681005 0.553547 0.600373
#
# Coordination Sequence:
#
# PCOD9008365 Si02
#       8
#     2   2   2   2   2   2   2   2
#     4  10  21  39  64  94 132 176 215 265 340 385
#     4  12  22  40  66  96 125 168 224 265 322 402
#     4  11  20  40  68  95 134 172 216 277 326 389
#     4  12  24  42  67  95 131 175 224 270 332 392
#     4  11  23  42  65  90 132 174 212 275 331 388
#     4  11  23  44  64  94 132 169 220 273 326 391
#     4  11  22  40  68  97 127 174 219 269 336 385
#     4  10  22  41  63  96 139 169 217 282 322 396
#
# _framework density 23.318522999999999
#
# number of rings (size 3 to 8) (size 9 to 14) (size 15 to 20)
#    0.000    1.000    5.000    1.875    0.000    2.500 
#    0.000    8.750    0.000    0.000    0.000    0.000 
#    0.000    0.000    0.000    0.000    0.000    0.000 
#
# Total GULP energy -89369.139321 kJ/mol
# GULP energy per Si atom -5585.571208 kJ/mol
# Density = 2.326545 g / cm^3
# Si number density = 23.318523 Si / 1000 Ang^3
#
#
#
# Elastic Constant Matrix: (Units=GPa)
#
#
# Indices 1 2 3 4 5 6 
#
# 1 45.0316 16.7230 19.3846 -2.8742 -6.0836 10.5574
# 2 16.7230 99.5883 43.1059 -2.7813 -4.9024 15.1607
# 3 19.3846 43.1059 143.6067 -0.9532 -10.3914 -2.6592
# 4 -2.8742 -2.7813 -0.9532 31.7980 -1.1973 -1.4585
# 5 -6.0836 -4.9024 -10.3914 -1.1973 20.2412 -10.5502
# 6 10.5574 15.1607 -2.6592 -1.4585 -10.5502 36.9813
#
#
#
# Elastic Compliance Matrix: (Units=1/GPa)
#
#
# Indices 1 2 3 4 5 6 
#
# 1 0.026075 -0.002084 -0.002775 0.001934 0.002963 -0.005867
# 2 -0.002084 0.012797 -0.003832 0.000470 -0.002379 -0.005587
# 3 -0.002775 -0.003832 0.008946 0.000083 0.005174 0.004486
# 4 0.001934 0.000470 0.000083 0.031863 0.003397 0.001487
# 5 0.002963 -0.002379 0.005174 0.003397 0.062148 0.018365
# 6 -0.005867 -0.005587 0.004486 0.001487 0.018365 0.036627
#
#
# Mechanical properties :
#
#
# Convention : Reuss Voigt Hill
#
# Bulk Modulus (GPa) = 32.85793 49.62818 41.24306
# Shear Modulus (GPa) = 24.27379 31.73831 28.00605
#
# Velocity S-wave (km/s) = 3.22990 3.69328 3.46934
# Velocity P-wave (km/s) = 5.29445 6.28618 5.81151
#
# Compressibility (1/GPa) = 0.03043405
#
# Stress axis : x y z
#
# Youngs Moduli (GPa) = 38.35150 78.14594 111.77697
#
# Poissons Ratio (x) = 0.16286 0.31023
# Poissons Ratio (y) = 0.07993 0.42835
# Poissons Ratio (z) = 0.10644 0.29947
#
# Static dielectric constant tensor:
#      x y z
#    x 1.946520 0.015070 0.026550 
#    y 0.015070 1.861010 0.008360 
#    z 0.026550 0.008360 1.937250 
# 
# From -- ./inp_files/433064.got.cif
#   From: 2010.05.17/outbox.cif.g08.bks.cpg/sg2_217_cif.got.tgz:433064.got - 2010.06.03 11:33:40.
