data_PCOD9008722
_publ_section_title
;
Structure prediction by ZEFSAII (Michael W. Deem and Ramdas Pophale) SiO2 
 PCOD9008722
Probable space group: P -1
;
_chemical_formula_sum "Si O2"
_cell_formula_units_Z 14
_cell_length_a 9.289272
_cell_length_b 14.566115
_cell_length_c 14.348343
_cell_angle_alpha 28.948307
_cell_angle_beta 125.999038
_cell_angle_gamma 104.734942
_cell_volume 568.506603
_symmetry_space_group_name_H-M "P -1"
_symmetry_group_IT_number 2
_symmetry_cell_setting 'triclinic'
loop_
_space_group_symop_operation_xyz
x,y,z
-x,-y,-z
loop_
_atom_site_type_symbol
_atom_site_label
_atom_site_fract_x
_atom_site_fract_y
_atom_site_fract_z
Si Si1 0.544951 0.695082 0.335573
Si Si2 0.355527 0.412260 0.741677
Si Si3 0.319256 0.883827 0.263927
Si Si4 0.712379 0.494301 0.071357
Si Si5 0.078674 0.390557 0.809176
Si Si6 0.123506 0.935549 0.703923
Si Si7 0.781536 0.533504 0.852939
O O1 0.500000 0.500000 0.500000
O O2 0.561497 0.727348 0.203380
O O3 0.343869 0.908099 0.141731
O O4 0.805370 0.582346 0.566619
O O5 0.301199 0.673383 0.469009
O O6 0.150010 0.463788 0.679611
O O7 0.600002 0.215053 0.067635
O O8 0.573625 0.768966 0.504749
O O9 0.124377 0.144437 0.010072
O O10 0.500000 0.500000 0.000000
O O11 0.745369 0.660183 0.997448
O O12 0.678791 0.555847 0.894904
O O13 0.957535 0.208832 0.444484
O O14 0.127355 0.721245 0.938262
O O15 0.000000 0.000000 0.500000
O O16 0.000000 0.500000 0.000000
#
# Coordination Sequence:
#
# PCOD9008722 Si02
#       7
#     2   2   2   2   2   2   2
#     4  10  24  48  69 103 137 177 237 286 344 407
#     4  10  23  46  68 100 135 182 232 280 346 409
#     4  10  24  45  67  99 141 176 231 287 340 405
#     4  11  24  42  64 103 139 176 230 278 340 416
#     4  12  25  43  73 100 140 182 230 285 345 412
#     4   9  20  40  66  90 136 177 218 282 334 399
#     4  10  21  39  65  95 130 178 224 275 346 404
#
# _framework density 24.625921000000002
#
# number of rings (size 3 to 8) (size 9 to 14) (size 15 to 20)
#    0.000    1.714    0.000    3.857    8.000    3.429 
#   20.571    0.000    0.000    0.000    0.000    0.000 
#    0.000    0.000    0.000    0.000    0.000    0.000 
#
# Total GULP energy -78179.003156 kJ/mol
# GULP energy per Si atom -5584.214511 kJ/mol
# Density = 2.456987 g / cm^3
# Si number density = 24.625921 Si / 1000 Ang^3
#
#
#
# Elastic Constant Matrix: (Units=GPa)
#
#
# Indices 1 2 3 4 5 6 
#
# 1 117.0464 11.2722 19.4201 12.1813 4.4297 -0.1910
# 2 11.2722 94.2814 13.6572 6.0550 -1.2215 -10.4173
# 3 19.4201 13.6572 46.8379 -10.7704 2.8848 5.5710
# 4 12.1813 6.0550 -10.7704 41.8597 3.6846 5.6628
# 5 4.4297 -1.2215 2.8848 3.6846 29.8531 5.7375
# 6 -0.1910 -10.4173 5.5710 5.6628 5.7375 42.8375
#
#
#
# Elastic Compliance Matrix: (Units=1/GPa)
#
#
# Indices 1 2 3 4 5 6 
#
# 1 0.009892 -0.000002 -0.005224 -0.004349 -0.000694 0.001391
# 2 -0.000002 0.011974 -0.004815 -0.003557 0.000641 0.003923
# 3 -0.005224 -0.004815 0.028175 0.010471 -0.002296 -0.005935
# 4 -0.004349 -0.003557 0.010471 0.029406 -0.003041 -0.005726
# 5 -0.000694 0.000641 -0.002296 -0.003041 0.034960 -0.003829
# 6 0.001391 0.003923 -0.005935 -0.005726 -0.003829 0.026346
#
#
# Mechanical properties :
#
#
# Convention : Reuss Voigt Hill
#
# Bulk Modulus (GPa) = 33.37727 38.54054 35.95890
# Shear Modulus (GPa) = 29.27056 37.16447 33.21752
#
# Velocity S-wave (km/s) = 3.45136 3.88901 3.67670
# Velocity P-wave (km/s) = 5.42823 5.98750 5.71471
#
# Compressibility (1/GPa) = 0.02996051
#
# Stress axis : x y z
#
# Youngs Moduli (GPa) = 101.09524 83.51141 35.49230
#
# Poissons Ratio (x) = 0.00016 0.18540
# Poissons Ratio (y) = 0.00020 0.17089
# Poissons Ratio (z) = 0.52808 0.40209
#
# Static dielectric constant tensor:
#      x y z
#    x 1.936720 0.102310 -0.038890 
#    y 0.102310 2.133270 -0.073810 
#    z -0.038890 -0.073810 2.025530 
# 
# From -- ./inp_files/503695.got.cif
#   From: 2010.05.17/outbox.cif.g08.bks.cpg/sg2_252_cif.got.tgz:503695.got - 2010.06.03 11:33:40.
