data_PCOD9008189
_publ_section_title
;
Structure prediction by ZEFSAII (Michael W. Deem and Ramdas Pophale) SiO2 
 PCOD9008189
Probable space group: P -1
;
_chemical_formula_sum "Si O2"
_cell_formula_units_Z 16
_cell_length_a 6.773125
_cell_length_b 27.523615
_cell_length_c 11.622251
_cell_angle_alpha 150.642080
_cell_angle_beta 121.668273
_cell_angle_gamma 45.159344
_cell_volume 727.753374
_symmetry_space_group_name_H-M "P -1"
_symmetry_group_IT_number 2
_symmetry_cell_setting 'triclinic'
loop_
_space_group_symop_operation_xyz
x,y,z
-x,-y,-z
loop_
_atom_site_type_symbol
_atom_site_label
_atom_site_fract_x
_atom_site_fract_y
_atom_site_fract_z
Si Si1 0.701589 0.174368 0.717669
Si Si2 0.331404 0.769726 0.850425
Si Si3 0.416737 0.413064 0.248757
Si Si4 0.292910 0.141392 0.187946
Si Si5 0.610131 0.247816 0.430214
Si Si6 0.895176 0.754739 0.408222
Si Si7 0.749586 0.018034 0.627217
Si Si8 0.103296 0.494971 0.890968
O O1 0.411996 0.191856 0.627925
O O2 0.770910 0.094523 0.688918
O O3 0.636531 0.303571 0.001342
O O4 0.939015 0.110483 0.558758
O O5 0.557207 0.665552 0.794229
O O6 0.403479 0.717183 0.635332
O O7 0.001757 0.819625 0.882215
O O8 0.320320 0.891977 0.103046
O O9 0.500000 0.500000 0.500000
O O10 0.120756 0.486499 0.237425
O O11 0.492256 0.167249 0.235583
O O12 0.170596 0.229323 0.443634
O O13 0.500000 0.000000 0.000000
O O14 0.401334 0.367820 0.690678
O O15 0.939492 0.184550 0.437927
O O16 0.097294 0.615536 0.137016
O O17 0.500000 0.000000 0.500000
O O18 0.000000 0.500000 0.000000
#
# Coordination Sequence:
#
# PCOD9008189 Si02
#       8
#     2   2   2   2   2   2   2   2
#     4   9  21  40  60  93 128 167 217 274 316 394
#     4  10  24  42  63 100 134 170 227 276 337 406
#     4  10  22  41  68  95 133 178 221 271 342 399
#     4  11  23  40  65  94 134 178 216 276 340 399
#     4  11  24  41  68  94 136 175 222 281 333 405
#     4  10  22  40  63  95 126 168 226 267 331 392
#     4  10  21  39  64  89 126 171 216 267 329 392
#     4  11  22  43  69  96 133 176 225 281 338 402
#
# _framework density 21.985468999999998
#
# number of rings (size 3 to 8) (size 9 to 14) (size 15 to 20)
#    0.000    1.750    1.250    1.875    1.750    9.500 
#    0.000    1.250    0.000    0.000    0.000    0.000 
#    0.000    0.000    0.000    0.000    0.000    0.000 
#
# Total GULP energy -89238.470437 kJ/mol
# GULP energy per Si atom -5577.404402 kJ/mol
# Density = 2.193543 g / cm^3
# Si number density = 21.985469 Si / 1000 Ang^3
#
#
#
# Elastic Constant Matrix: (Units=GPa)
#
#
# Indices 1 2 3 4 5 6 
#
# 1 112.8426 35.2952 39.6555 -4.4069 1.1042 -18.5702
# 2 35.2952 80.7056 23.1239 -15.5080 2.4074 -10.4258
# 3 39.6555 23.1239 96.9200 -21.1839 -1.1184 -18.2195
# 4 -4.4069 -15.5080 -21.1839 31.0596 -3.9652 -1.7096
# 5 1.1042 2.4074 -1.1184 -3.9652 33.2588 -7.1539
# 6 -18.5702 -10.4258 -18.2195 -1.7096 -7.1539 25.2538
#
#
#
# Elastic Compliance Matrix: (Units=1/GPa)
#
#
# Indices 1 2 3 4 5 6 
#
# 1 0.012083 -0.004162 -0.003665 -0.002562 0.000433 0.004472
# 2 -0.004162 0.016248 0.000583 0.008323 0.001033 0.004924
# 3 -0.003665 0.000583 0.016627 0.012345 0.004624 0.011687
# 4 -0.002562 0.008323 0.012345 0.046432 0.008901 0.016123
# 5 0.000433 0.001033 0.004624 0.008901 0.034292 0.014398
# 6 0.004472 0.004924 0.011687 0.016123 0.014398 0.058521
#
#
# Mechanical properties :
#
#
# Convention : Reuss Voigt Hill
#
# Bulk Modulus (GPa) = 32.81887 54.06860 43.44373
# Shear Modulus (GPa) = 23.94083 30.74069 27.34076
#
# Velocity S-wave (km/s) = 3.30349 3.74334 3.53027
# Velocity P-wave (km/s) = 5.43237 6.58254 6.03492
#
# Compressibility (1/GPa) = 0.03047028
#
# Stress axis : x y z
#
# Youngs Moduli (GPa) = 82.75816 61.54470 60.14365
#
# Poissons Ratio (x) = 0.25613 0.22044
# Poissons Ratio (y) = 0.34442 -0.03506
# Poissons Ratio (z) = 0.30333 -0.03587
#
# Static dielectric constant tensor:
#      x y z
#    x 1.810140 0.020450 0.010380 
#    y 0.020450 1.923810 0.028820 
#    z 0.010380 0.028820 1.863860 
# 
# From -- ./inp_files/70332.got.cif
#   From: 2010.05.17/outbox.cif.g08.bks.cpg/sg2_36_cif.got.tgz:70332.got - 2010.06.03 11:33:40.
