data_PCOD9008162
_publ_section_title
;
Structure prediction by ZEFSAII (Michael W. Deem and Ramdas Pophale) SiO2 
 PCOD9008162
Probable space group: P -1
;
_chemical_formula_sum "Si O2"
_cell_formula_units_Z 16
_cell_length_a 20.875117
_cell_length_b 17.186113
_cell_length_c 8.079450
_cell_angle_alpha 139.219394
_cell_angle_beta 143.953704
_cell_angle_gamma 21.193218
_cell_volume 616.539466
_symmetry_space_group_name_H-M "P -1"
_symmetry_group_IT_number 2
_symmetry_cell_setting 'triclinic'
loop_
_space_group_symop_operation_xyz
x,y,z
-x,-y,-z
loop_
_atom_site_type_symbol
_atom_site_label
_atom_site_fract_x
_atom_site_fract_y
_atom_site_fract_z
Si Si1 0.454742 0.411345 0.833906
Si Si2 0.668748 0.559788 0.828769
Si Si3 0.227538 0.042264 0.325028
Si Si4 0.860089 0.417923 0.345998
Si Si5 0.634426 0.267029 0.343356
Si Si6 0.161744 0.299288 0.142403
Si Si7 0.980942 0.829812 0.236832
Si Si8 0.426552 0.096980 0.820212
O O1 0.237999 0.559310 0.666112
O O2 0.570513 0.212605 0.641006
O O3 0.500000 0.500000 0.000000
O O4 0.556638 0.311839 0.068476
O O5 0.439527 0.755218 0.704832
O O6 0.784585 0.376980 0.640841
O O7 0.765474 0.449662 0.033434
O O8 0.700099 0.669678 0.042834
O O9 0.289213 0.114955 0.503963
O O10 0.090815 0.185162 0.428472
O O11 0.107319 0.087907 0.001552
O O12 0.813125 0.601904 0.538485
O O13 0.500000 0.500000 0.500000
O O14 0.868636 0.033901 0.436032
O O15 0.379253 0.075501 0.164640
O O16 0.078343 0.248331 0.948331
O O17 0.000000 0.500000 0.000000
O O18 0.500000 0.000000 0.000000
#
# Coordination Sequence:
#
# PCOD9008162 Si02
#       8
#     2   2   2   2   2   2   2   2
#     4  10  22  41  63  89 119 163 215 261 306 361
#     4  10  21  39  64  88 120 166 202 249 306 372
#     4  10  21  39  64  88 120 166 202 249 306 372
#     4  10  21  40  63  88 123 159 209 247 304 377
#     4  10  22  41  63  89 119 163 215 261 306 361
#     4  12  23  38  59  94 131 158 197 251 314 376
#     4  10  21  40  63  88 123 159 209 247 304 377
#     4  12  23  36  59  92 131 160 199 251 314 376
#
# _framework density 25.9513
#
# number of rings (size 3 to 8) (size 9 to 14) (size 15 to 20)
#    0.000    1.500    2.500    3.000    0.000    5.000 
#    4.500    0.000    0.000    0.000    0.000    0.000 
#    0.000    0.000    0.000    0.000    0.000    0.000 
#
# Total GULP energy -89359.254127 kJ/mol
# GULP energy per Si atom -5584.953383 kJ/mol
# Density = 2.589223 g / cm^3
# Si number density = 25.951300 Si / 1000 Ang^3
#
#
#
# Elastic Constant Matrix: (Units=GPa)
#
#
# Indices 1 2 3 4 5 6 
#
# 1 126.0739 67.8258 17.1238 18.7148 9.6773 -31.9056
# 2 67.8258 182.9509 30.0006 45.0049 9.6584 -57.2739
# 3 17.1238 30.0006 74.1186 23.6225 7.7754 -12.5080
# 4 18.7148 45.0049 23.6225 52.1460 5.4533 -9.0646
# 5 9.6773 9.6584 7.7754 5.4533 41.2243 2.8220
# 6 -31.9056 -57.2739 -12.5080 -9.0646 2.8220 48.3371
#
#
#
# Elastic Compliance Matrix: (Units=1/GPa)
#
#
# Indices 1 2 3 4 5 6 
#
# 1 0.010510 -0.002243 -0.000368 -0.000729 -0.002061 0.004168
# 2 -0.002243 0.011611 0.000188 -0.007157 -0.002042 0.011103
# 3 -0.000368 0.000188 0.016402 -0.006670 -0.002382 0.003112
# 4 -0.000729 -0.007157 -0.006670 0.027703 -0.000183 -0.005482
# 5 -0.002061 -0.002042 -0.002382 -0.000183 0.026101 -0.005955
# 6 0.004168 0.011103 0.003112 -0.005482 -0.005955 0.036719
#
#
# Mechanical properties :
#
#
# Convention : Reuss Voigt Hill
#
# Bulk Modulus (GPa) = 29.69560 68.11597 48.90579
# Shear Modulus (GPa) = 34.45453 46.22103 40.33778
#
# Velocity S-wave (km/s) = 3.64766 4.22485 3.94682
# Velocity P-wave (km/s) = 5.40446 7.07840 6.29730
#
# Compressibility (1/GPa) = 0.03367502
#
# Stress axis : x y z
#
# Youngs Moduli (GPa) = 95.14978 86.12513 60.96902
#
# Poissons Ratio (x) = 0.19318 0.02245
# Poissons Ratio (y) = 0.21342 -0.01143
# Poissons Ratio (z) = 0.03504 -0.01615
#
# Static dielectric constant tensor:
#      x y z
#    x 2.245350 -0.036600 0.168530 
#    y -0.036600 2.096360 -0.128180 
#    z 0.168530 -0.128180 2.287580 
# 
# From -- ./inp_files/225883.got.cif
#   From: 2010.05.17/outbox.cif.g08.bks.cpg/sg2_113_cif.got.tgz:225883.got - 2010.06.03 11:33:40.
