data_PCOD9008575
_publ_section_title
;
Structure prediction by ZEFSAII (Michael W. Deem and Ramdas Pophale) SiO2 
 PCOD9008575
Probable space group: P -1
;
_chemical_formula_sum "Si O2"
_cell_formula_units_Z 16
_cell_length_a 18.961807
_cell_length_b 13.733240
_cell_length_c 22.477313
_cell_angle_alpha 152.416496
_cell_angle_beta 17.646155
_cell_angle_gamma 144.399416
_cell_volume 800.586429
_symmetry_space_group_name_H-M "P -1"
_symmetry_group_IT_number 2
_symmetry_cell_setting 'triclinic'
loop_
_space_group_symop_operation_xyz
x,y,z
-x,-y,-z
loop_
_atom_site_type_symbol
_atom_site_label
_atom_site_fract_x
_atom_site_fract_y
_atom_site_fract_z
Si Si1 0.504687 0.339017 0.713026
Si Si2 0.383441 0.549025 0.186115
Si Si3 0.129362 0.252656 0.766106
Si Si4 0.508307 0.099804 0.871098
Si Si5 0.410414 0.739262 0.674415
Si Si6 0.060482 0.882441 0.553700
Si Si7 0.568938 0.801584 0.882118
Si Si8 0.864415 0.889544 0.179177
O O1 0.480959 0.396985 0.834451
O O2 0.512677 0.563815 0.794607
O O3 0.290884 0.239600 0.805798
O O4 0.743139 0.145463 0.408486
O O5 0.182908 0.755734 0.444314
O O6 0.500000 0.500000 0.000000
O O7 0.317836 0.323997 0.132942
O O8 0.391795 0.220589 0.509222
O O9 0.153593 0.173579 0.771339
O O10 0.981877 0.123885 0.772402
O O11 0.000000 0.500000 0.000000
O O12 0.747965 0.115499 0.651282
O O13 0.415864 0.902376 0.812713
O O14 0.547578 0.098203 0.908166
O O15 0.500000 0.500000 0.500000
O O16 0.146690 0.804846 0.894010
O O17 0.853705 0.769698 0.639946
O O18 0.500000 0.000000 0.000000
#
# Coordination Sequence:
#
# PCOD9008575 Si02
#       8
#     2   2   2   2   2   2   2   2
#     4  10  24  42  65  97 132 184 210 273 333 387
#     4   9  18  39  65  91 120 160 217 264 314 381
#     4  11  22  39  68  95 129 170 220 267 327 389
#     4   9  22  38  61  94 124 156 216 267 319 379
#     4  11  23  38  65 100 123 171 218 264 324 388
#     4  10  21  39  65  91 122 164 210 271 322 376
#     4  11  25  40  63  93 129 171 217 260 336 388
#     4  11  23  44  64  93 145 167 219 270 325 397
#
# _framework density 19.985348999999999
#
# number of rings (size 3 to 8) (size 9 to 14) (size 15 to 20)
#    0.000    1.750    2.500    0.750    3.500    1.500 
#    0.000    8.750    0.000    0.000    0.000    0.000 
#    0.000    0.000    0.000    0.000    0.000    0.000 
#
# Total GULP energy -89151.647809 kJ/mol
# GULP energy per Si atom -5571.977988 kJ/mol
# Density = 1.993986 g / cm^3
# Si number density = 19.985349 Si / 1000 Ang^3
#
#
#
# Elastic Constant Matrix: (Units=GPa)
#
#
# Indices 1 2 3 4 5 6 
#
# 1 -74.3545 246.6589 63.2954 4.2076 -362.4610 -67.6684
# 2 246.6589 -159.9799 -0.6054 30.2586 483.4049 83.0325
# 3 63.2954 -0.6054 75.3177 13.8749 81.9174 22.9496
# 4 4.2076 30.2586 13.8749 51.6235 -16.2220 -1.3021
# 5 -362.4610 483.4049 81.9174 -16.2220 -851.3981 -142.4731
# 6 -67.6684 83.0325 22.9496 -1.3021 -142.4731 18.0666
#
#
#
# Elastic Compliance Matrix: (Units=1/GPa)
#
#
# Indices 1 2 3 4 5 6 
#
# 1 0.016445 -0.004354 -0.003482 -0.001032 -0.010421 0.003777
# 2 -0.004354 0.012933 -0.005177 -0.003079 0.008781 -0.000144
# 3 -0.003482 -0.005177 0.016652 -0.000998 0.000826 -0.003957
# 4 -0.001032 -0.003079 -0.000998 0.020974 -0.001720 -0.000502
# 5 -0.010421 0.008781 0.000826 -0.001720 0.009416 -0.006310
# 6 0.003777 -0.000144 -0.003957 -0.000502 -0.006310 0.025391
#
#
# Mechanical properties :
#
#
# Convention : Reuss Voigt Hill
#
# Bulk Modulus (GPa) = 49.98961 51.07567 50.53264
# Shear Modulus (GPa) = 37.17312 -187.56596 -75.19642
#
# Velocity S-wave (km/s) = 4.31747 -9.69822 -6.14064
# Velocity P-wave (km/s) = 7.06552 9.98976 4.99368
#
# Compressibility (1/GPa) = 0.02000416
#
# Stress axis : x y z
#
# Youngs Moduli (GPa) = 60.80892 77.32103 60.05141
#
# Poissons Ratio (x) = 0.33666 0.20911
# Poissons Ratio (y) = 0.26477 0.31088
# Poissons Ratio (z) = 0.21175 0.40028
#
# Static dielectric constant tensor:
#      x y z
#    x 1.751300 0.017530 0.032960 
#    y 0.017530 1.773250 0.051620 
#    z 0.032960 0.051620 1.834410 
# 
# From -- ./inp_files/600114.got.cif
#   From: 2010.05.17/outbox.cif.g08.bks.cpg/sg2_301_cif.got.tgz:600114.got - 2010.06.03 11:33:40.
