data_PCOD9008599
_publ_section_title
;
Structure prediction by ZEFSAII (Michael W. Deem and Ramdas Pophale) SiO2 
 PCOD9008599
Probable space group: P -1
;
_chemical_formula_sum "Si O2"
_cell_formula_units_Z 14
_cell_length_a 12.034059
_cell_length_b 11.797477
_cell_length_c 14.556844
_cell_angle_alpha 59.956191
_cell_angle_beta 151.921918
_cell_angle_gamma 102.134782
_cell_volume 692.869760
_symmetry_space_group_name_H-M "P -1"
_symmetry_group_IT_number 2
_symmetry_cell_setting 'triclinic'
loop_
_space_group_symop_operation_xyz
x,y,z
-x,-y,-z
loop_
_atom_site_type_symbol
_atom_site_label
_atom_site_fract_x
_atom_site_fract_y
_atom_site_fract_z
Si Si1 0.715078 0.223013 0.050944
Si Si2 0.269030 0.190591 0.629081
Si Si3 0.249046 0.264335 0.218923
Si Si4 0.957724 0.411344 0.136700
Si Si5 0.660949 0.310041 0.187056
Si Si6 0.212873 0.028448 0.195707
Si Si7 0.617922 0.051886 0.336931
O O1 0.721428 0.372960 0.964420
O O2 0.641274 0.257584 0.090856
O O3 0.498987 0.201024 0.847473
O O4 0.044584 0.071298 0.342187
O O5 0.124210 0.321750 0.387616
O O6 0.001042 0.229688 0.479837
O O7 0.402663 0.022628 0.743569
O O8 0.580535 0.119617 0.526983
O O9 0.166529 0.333595 0.233192
O O10 0.080764 0.186972 0.095746
O O11 0.177531 0.403815 0.042120
O O12 0.556660 0.224621 0.209692
O O13 0.500000 0.500000 0.000000
O O14 0.413982 0.041536 0.263728
O O15 0.000000 0.000000 0.000000
#
# Coordination Sequence:
#
# PCOD9008599 Si02
#       7
#     2   2   2   2   2   2   2
#     4  10  21  40  65  92 118 161 205 243 301 370
#     4  10  21  39  65  92 116 160 207 237 303 373
#     4  10  21  40  59  85 124 161 203 253 300 343
#     4   9  20  39  62  86 123 159 197 257 297 351
#     4  10  23  41  63  90 129 151 197 256 307 357
#     4  11  24  38  61  92 122 162 207 245 302 363
#     4  10  22  41  62  86 126 163 195 257 298 350
#
# _framework density 20.205818000000001
#
# number of rings (size 3 to 8) (size 9 to 14) (size 15 to 20)
#    0.000    2.286    2.857    1.714    6.000    4.000 
#    0.000    2.857    0.000    0.000    0.000    0.000 
#    0.000    0.000    0.000    0.000    0.000    0.000 
#
# Total GULP energy -78122.712244 kJ/mol
# GULP energy per Si atom -5580.193732 kJ/mol
# Density = 2.015983 g / cm^3
# Si number density = 20.205818 Si / 1000 Ang^3
#
#
#
# Elastic Constant Matrix: (Units=GPa)
#
#
# Indices 1 2 3 4 5 6 
#
# 1 73.2269 33.8914 31.1518 -6.7543 6.7423 10.1664
# 2 33.8914 157.0547 83.4209 13.4315 -14.2723 15.3766
# 3 31.1518 83.4209 62.8769 15.4576 -4.7302 8.0330
# 4 -6.7543 13.4315 15.4576 54.9715 4.9095 -10.5081
# 5 6.7423 -14.2723 -4.7302 4.9095 18.2810 -10.8541
# 6 10.1664 15.3766 8.0330 -10.5081 -10.8541 28.6612
#
#
#
# Elastic Compliance Matrix: (Units=1/GPa)
#
#
# Indices 1 2 3 4 5 6 
#
# 1 0.023189 0.002557 -0.016726 0.006773 -0.018246 -0.009336
# 2 0.002557 0.023867 -0.033016 0.002985 0.008190 -0.000262
# 3 -0.016726 -0.033016 0.071881 -0.014594 0.002338 -0.000966
# 4 0.006773 0.002985 -0.014594 0.024224 -0.006611 0.006464
# 5 -0.018246 0.008190 0.002338 -0.006611 0.089804 0.033008
# 6 -0.009336 -0.000262 -0.000966 0.006464 0.033008 0.053483
#
#
# Mechanical properties :
#
#
# Convention : Reuss Voigt Hill
#
# Bulk Modulus (GPa) = 40.70478 65.56518 53.13498
# Shear Modulus (GPa) = 12.85325 30.02903 21.44114
#
# Velocity S-wave (km/s) = 2.52487 3.85925 3.26104
# Velocity P-wave (km/s) = 5.35619 7.23723 6.36657
#
# Compressibility (1/GPa) = 0.02456714
#
# Stress axis : x y z
#
# Youngs Moduli (GPa) = 43.12355 41.89949 13.91193
#
# Poissons Ratio (x) = -0.10713 0.23269
# Poissons Ratio (y) = -0.11025 0.45931
# Poissons Ratio (z) = 0.72128 1.38334
#
# Static dielectric constant tensor:
#      x y z
#    x 1.790780 -0.019430 0.006120 
#    y -0.019430 1.742380 -0.039000 
#    z 0.006120 -0.039000 1.703490 
# 
# From -- ./inp_files/331993.got.cif
#   From: 2010.05.17/outbox.cif.g08.bks.cpg/sg2_166_cif.got.tgz:331993.got - 2010.06.03 11:33:40.
