data_PCOD9008496
_publ_section_title
;
Structure prediction by ZEFSAII (Michael W. Deem and Ramdas Pophale) SiO2 
 PCOD9008496
Probable space group: P -1
;
_chemical_formula_sum "Si O2"
_cell_formula_units_Z 16
_cell_length_a 9.027189
_cell_length_b 12.330555
_cell_length_c 13.059329
_cell_angle_alpha 46.112735
_cell_angle_beta 132.085738
_cell_angle_gamma 126.013689
_cell_volume 756.546964
_symmetry_space_group_name_H-M "P -1"
_symmetry_group_IT_number 2
_symmetry_cell_setting 'triclinic'
loop_
_space_group_symop_operation_xyz
x,y,z
-x,-y,-z
loop_
_atom_site_type_symbol
_atom_site_label
_atom_site_fract_x
_atom_site_fract_y
_atom_site_fract_z
Si Si1 0.567671 0.012377 0.142483
Si Si2 0.156497 0.444249 0.343531
Si Si3 0.017706 0.144138 0.336508
Si Si4 0.738737 0.611346 0.243908
Si Si5 0.122013 0.658862 0.539385
Si Si6 0.222032 0.107009 0.060035
Si Si7 0.519159 0.675178 0.295174
Si Si8 0.270266 0.017707 0.373608
O O1 0.576613 0.834955 0.278205
O O2 0.398112 0.051061 0.113970
O O3 0.792115 0.120045 0.196360
O O4 0.500000 0.000000 0.000000
O O5 0.088107 0.305163 0.323232
O O6 0.278043 0.599572 0.243409
O O7 0.330057 0.417912 0.520870
O O8 0.970186 0.436174 0.339767
O O9 0.185865 0.123466 0.345067
O O10 0.000000 0.000000 0.500000
O O11 0.690259 0.423294 0.342087
O O12 0.588067 0.675105 0.209078
O O13 0.961888 0.643021 0.381622
O O14 0.757817 0.716322 0.083127
O O15 0.153550 0.839795 0.457455
O O16 0.245168 0.079653 0.208310
O O17 0.000000 0.000000 0.000000
O O18 0.500000 0.000000 0.500000
#
# Coordination Sequence:
#
# PCOD9008496 Si02
#       8
#     2   2   2   2   2   2   2   2
#     4  12  24  42  71  94 132 179 221 276 335 395
#     4  10  22  38  69  96 130 168 225 276 328 397
#     4  12  22  45  69  96 133 176 228 282 330 397
#     4  10  21  41  65  95 135 169 216 280 329 398
#     4  10  21  40  65  97 133 171 216 273 338 394
#     4  12  25  42  68 102 134 173 227 280 335 401
#     4  10  21  39  65 102 126 171 223 272 332 397
#     4  12  26  41  68 102 134 176 222 273 339 403
#
# _framework density 21.148720999999998
#
# number of rings (size 3 to 8) (size 9 to 14) (size 15 to 20)
#    0.000    1.000    5.000    2.250    3.500    1.000 
#    0.000    1.250    0.000    0.000    0.000    0.000 
#    0.000    0.000    0.000    0.000    0.000    0.000 
#
# Total GULP energy -89207.914771 kJ/mol
# GULP energy per Si atom -5575.494673 kJ/mol
# Density = 2.110059 g / cm^3
# Si number density = 21.148721 Si / 1000 Ang^3
#
#
#
# Elastic Constant Matrix: (Units=GPa)
#
#
# Indices 1 2 3 4 5 6 
#
# 1 135.9464 21.1460 39.3863 8.5770 -4.3521 -11.1178
# 2 21.1460 64.4536 -2.0756 6.9582 -7.8636 -1.1434
# 3 39.3863 -2.0756 69.4712 5.8883 -15.3590 3.4668
# 4 8.5770 6.9582 5.8883 38.2356 -3.2073 3.6907
# 5 -4.3521 -7.8636 -15.3590 -3.2073 32.2002 -1.1286
# 6 -11.1178 -1.1434 3.4668 3.6907 -1.1286 29.5831
#
#
#
# Elastic Compliance Matrix: (Units=1/GPa)
#
#
# Indices 1 2 3 4 5 6 
#
# 1 0.010201 -0.003663 -0.006592 -0.001263 -0.002628 0.004522
# 2 -0.003663 0.017781 0.004073 -0.002517 0.005517 -0.000642
# 3 -0.006592 0.004073 0.020716 -0.001230 0.009715 -0.004224
# 4 -0.001263 -0.002517 -0.001230 0.027557 0.001239 -0.003819
# 5 -0.002628 0.005517 0.009715 0.001239 0.036782 -0.000664
# 6 0.004522 -0.000642 -0.004224 -0.003819 -0.000664 0.036424
#
#
# Mechanical properties :
#
#
# Convention : Reuss Voigt Hill
#
# Bulk Modulus (GPa) = 27.52230 42.97605 35.24918
# Shear Modulus (GPa) = 28.74604 34.09807 31.42205
#
# Velocity S-wave (km/s) = 3.69078 4.01970 3.85875
# Velocity P-wave (km/s) = 5.58609 6.47371 6.04621
#
# Compressibility (1/GPa) = 0.03633417
#
# Stress axis : x y z
#
# Youngs Moduli (GPa) = 98.03040 56.23870 48.27092
#
# Poissons Ratio (x) = 0.20600 0.31822
# Poissons Ratio (y) = 0.35908 -0.19661
# Poissons Ratio (z) = 0.64625 -0.22906
#
# Static dielectric constant tensor:
#      x y z
#    x 1.797210 -0.155560 0.032540 
#    y -0.155560 0.424720 0.254820 
#    z 0.032540 0.254820 1.756400 
# 
# From -- ./inp_files/503954.got.cif
#   From: 2010.05.17/outbox.cif.g08.bks.cpg/sg2_252_cif.got.tgz:503954.got - 2010.06.03 11:33:40.
