data_PCOD9008637
_publ_section_title
;
Structure prediction by ZEFSAII (Michael W. Deem and Ramdas Pophale) SiO2 
 PCOD9008637
Probable space group: P -1
;
_chemical_formula_sum "Si O2"
_cell_formula_units_Z 16
_cell_length_a 8.740436
_cell_length_b 20.286488
_cell_length_c 13.111943
_cell_angle_alpha 44.876376
_cell_angle_beta 111.549633
_cell_angle_gamma 144.217282
_cell_volume 828.937826
_symmetry_space_group_name_H-M "P -1"
_symmetry_group_IT_number 2
_symmetry_cell_setting 'triclinic'
loop_
_space_group_symop_operation_xyz
x,y,z
-x,-y,-z
loop_
_atom_site_type_symbol
_atom_site_label
_atom_site_fract_x
_atom_site_fract_y
_atom_site_fract_z
Si Si1 0.639386 0.360061 0.867811
Si Si2 0.610697 0.701097 0.552247
Si Si3 0.799732 0.437611 0.115607
Si Si4 0.668899 0.881354 0.525309
Si Si5 0.301442 0.452270 0.155041
Si Si6 0.165312 0.985886 0.234756
Si Si7 0.551878 0.634175 0.386915
Si Si8 0.644111 0.078293 0.337991
O O1 0.683986 0.475274 0.820483
O O2 0.599787 0.375393 0.726188
O O3 0.935517 0.435730 0.873501
O O4 0.340730 0.163588 0.051329
O O5 0.532194 0.753918 0.540490
O O6 0.582365 0.594079 0.731313
O O7 0.448536 0.608228 0.505847
O O8 0.959682 0.885646 0.397479
O O9 0.033976 0.724337 0.775667
O O10 0.595772 0.429859 0.041194
O O11 0.000000 0.500000 0.000000
O O12 0.441129 0.755096 0.701355
O O13 0.685311 0.998201 0.383353
O O14 0.000000 0.000000 0.500000
O O15 0.088576 0.168806 0.738468
O O16 0.427532 0.036812 0.261504
O O17 0.500000 0.500000 0.500000
O O18 0.500000 0.000000 0.500000
#
# Coordination Sequence:
#
# PCOD9008637 Si02
#       8
#     2   2   2   2   2   2   2   2
#     4  11  20  37  64  94 124 162 216 270 296 374
#     4  10  23  40  58  94 126 168 206 258 327 369
#     4  10  24  35  62  93 124 166 211 257 315 373
#     4  12  25  40  61  92 137 169 203 263 332 377
#     4  11  20  34  58  93 123 161 204 258 313 370
#     4  10  22  36  65  91 124 163 218 257 313 368
#     4  10  21  39  65  93 122 168 223 262 304 374
#     4  12  20  37  62  90 123 166 213 252 307 392
#
# _framework density 19.30181
#
# number of rings (size 3 to 8) (size 9 to 14) (size 15 to 20)
#    0.750    0.500    5.000    1.875    7.000    0.500 
#    0.000    0.625    0.000    0.750    0.000    0.000 
#    0.000    0.000    0.000    0.000    0.000    0.000 
#
# Total GULP energy -89105.848363 kJ/mol
# GULP energy per Si atom -5569.115523 kJ/mol
# Density = 1.925788 g / cm^3
# Si number density = 19.301810 Si / 1000 Ang^3
#
#
#
# Elastic Constant Matrix: (Units=GPa)
#
#
# Indices 1 2 3 4 5 6 
#
# 1 50.9905 30.0284 26.7748 3.3775 11.2761 -17.1924
# 2 30.0284 112.4864 40.1034 9.8806 14.1195 -10.4073
# 3 26.7748 40.1034 91.0641 8.8393 22.6724 -1.8942
# 4 3.3775 9.8806 8.8393 43.6657 9.9995 6.3206
# 5 11.2761 14.1195 22.6724 9.9995 29.5035 -6.9492
# 6 -17.1924 -10.4073 -1.8942 6.3206 -6.9492 35.4595
#
#
#
# Elastic Compliance Matrix: (Units=1/GPa)
#
#
# Indices 1 2 3 4 5 6 
#
# 1 0.030245 -0.004332 -0.006306 -0.001779 -0.000930 0.013191
# 2 -0.004332 0.011637 -0.003595 -0.001714 -0.000245 0.001381
# 3 -0.006306 -0.003595 0.016796 0.001078 -0.010426 -0.005451
# 4 -0.001779 -0.001714 0.001078 0.026738 -0.010296 -0.008092
# 5 -0.000930 -0.000245 -0.010426 -0.010296 0.048275 0.010216
# 6 0.013191 0.001381 -0.005451 -0.008092 0.010216 0.038155
#
#
# Mechanical properties :
#
#
# Convention : Reuss Voigt Hill
#
# Bulk Modulus (GPa) = 33.09974 49.81714 41.45844
# Shear Modulus (GPa) = 23.76610 32.23470 28.00040
#
# Velocity S-wave (km/s) = 3.51278 4.09104 3.81289
# Velocity P-wave (km/s) = 5.79988 6.94126 6.39608
#
# Compressibility (1/GPa) = 0.03021172
#
# Stress axis : x y z
#
# Youngs Moduli (GPa) = 33.06321 85.93145 59.53651
#
# Poissons Ratio (x) = 0.37228 0.37545
# Poissons Ratio (y) = 0.14324 0.21404
# Poissons Ratio (z) = 0.20850 0.30893
#
# Static dielectric constant tensor:
#      x y z
#    x 1.515320 0.133490 -0.238230 
#    y 0.133490 1.579210 0.203550 
#    z -0.238230 0.203550 1.395890 
# 
# From -- ./inp_files/301399.got.cif
#   From: 2010.05.17/outbox.cif.g08.bks.cpg/sg2_151_cif.got.tgz:301399.got - 2010.06.03 11:33:40.
