data_PCOD9008453
_publ_section_title
;
Structure prediction by ZEFSAII (Michael W. Deem and Ramdas Pophale) SiO2 
 PCOD9008453
Probable space group: P -1
;
_chemical_formula_sum "Si O2"
_cell_formula_units_Z 16
_cell_length_a 11.621955
_cell_length_b 12.409804
_cell_length_c 8.717167
_cell_angle_alpha 109.857656
_cell_angle_beta 56.389837
_cell_angle_gamma 63.659881
_cell_volume 582.259669
_symmetry_space_group_name_H-M "P -1"
_symmetry_group_IT_number 2
_symmetry_cell_setting 'triclinic'
loop_
_space_group_symop_operation_xyz
x,y,z
-x,-y,-z
loop_
_atom_site_type_symbol
_atom_site_label
_atom_site_fract_x
_atom_site_fract_y
_atom_site_fract_z
Si Si1 0.772980 0.631263 0.625042
Si Si2 0.247315 0.781259 0.760304
Si Si3 0.523543 0.288995 0.882605
Si Si4 0.358705 0.100137 0.394943
Si Si5 0.799274 0.291275 0.561548
Si Si6 0.631524 0.679455 0.320507
Si Si7 0.014576 0.760962 0.111587
Si Si8 0.881447 0.785385 0.898781
O O1 0.715380 0.779580 0.640591
O O2 0.000000 0.500000 0.500000
O O3 0.893683 0.446945 0.353408
O O4 0.545728 0.738597 0.932722
O O5 0.310517 0.662335 0.505081
O O6 0.440829 0.749822 0.609609
O O7 0.197769 0.739053 0.927364
O O8 0.000000 0.000000 0.000000
O O9 0.765338 0.195903 0.632612
O O10 0.458255 0.271529 0.763114
O O11 0.335718 0.519699 0.155853
O O12 0.322534 0.221538 0.614449
O O13 0.187362 0.107127 0.548327
O O14 0.634950 0.893834 0.096129
O O15 0.047335 0.176583 0.272574
O O16 0.847096 0.448074 0.057043
O O17 0.869651 0.854247 0.104536
#
# Coordination Sequence:
#
# PCOD9008453 Si02
#       8
#     2   2   2   2   2   2   2   2
#     4  11  24  43  66  92 133 178 218 265 337 400
#     4  10  21  39  64  98 131 173 222 279 331 389
#     4   9  19  37  66  92 130 173 215 272 325 399
#     4  12  25  42  69 100 132 174 226 273 332 396
#     4   8  17  38  63  87 129 173 213 264 339 383
#     4  11  21  38  70 100 126 174 228 270 332 396
#     4  11  22  40  62  99 135 170 216 279 332 387
#     4  10  22  41  66  92 132 170 216 285 324 378
#
# _framework density 27.479149
#
# number of rings (size 3 to 8) (size 9 to 14) (size 15 to 20)
#    0.000    1.750    1.250    3.375    1.750    0.500 
#    4.500    0.625    0.000    0.000    0.000    0.000 
#    0.000    0.000    0.000    0.000    0.000    0.000 
#
# Total GULP energy -89581.904725 kJ/mol
# GULP energy per Si atom -5598.869045 kJ/mol
# Density = 2.741661 g / cm^3
# Si number density = 27.479149 Si / 1000 Ang^3
#
#
#
# Elastic Constant Matrix: (Units=GPa)
#
#
# Indices 1 2 3 4 5 6 
#
# 1 57.4710 22.8790 17.6411 -11.8615 -5.5497 17.1998
# 2 22.8790 124.8813 65.6195 -20.0306 -20.4438 11.8978
# 3 17.6411 65.6195 174.5222 -22.5542 -30.6930 12.3836
# 4 -11.8615 -20.0306 -22.5542 62.7443 14.0044 -16.1371
# 5 -5.5497 -20.4438 -30.6930 14.0044 60.7703 -12.1328
# 6 17.1998 11.8978 12.3836 -16.1371 -12.1328 34.2657
#
#
#
# Elastic Compliance Matrix: (Units=1/GPa)
#
#
# Indices 1 2 3 4 5 6 
#
# 1 0.021668 -0.002839 -0.000573 0.000772 -0.001404 -0.009817
# 2 -0.002839 0.010718 -0.003327 0.001398 0.001352 0.000043
# 3 -0.000573 -0.003327 0.007597 0.001028 0.002437 0.000044
# 4 0.000772 0.001398 0.001028 0.019156 -0.001939 0.007090
# 5 -0.001404 0.001352 0.002437 -0.001939 0.019529 0.005356
# 6 -0.009817 0.000043 0.000044 0.007090 0.005356 0.039316
#
#
# Mechanical properties :
#
#
# Convention : Reuss Voigt Hill
#
# Bulk Modulus (GPa) = 37.73095 63.23929 50.48512
# Shear Modulus (GPa) = 35.63851 48.27172 41.95511
#
# Velocity S-wave (km/s) = 3.60520 4.19581 3.91167
# Velocity P-wave (km/s) = 5.57589 6.82177 6.23005
#
# Compressibility (1/GPa) = 0.02650344
#
# Stress axis : x y z
#
# Youngs Moduli (GPa) = 46.15080 93.30439 131.62603
#
# Poissons Ratio (x) = 0.26491 0.07545
# Poissons Ratio (y) = 0.13103 0.43797
# Poissons Ratio (z) = 0.02646 0.31046
#
# Static dielectric constant tensor:
#      x y z
#    x 2.257800 0.104590 0.122010 
#    y 0.104590 2.116320 0.007020 
#    z 0.122010 0.007020 2.233720 
# 
# From -- ./inp_files/313263.got.cif
#   From: 2010.05.17/outbox.cif.g08.bks.cpg/sg2_157_cif.got.tgz:313263.got - 2010.06.03 11:33:40.
