data_PCOD9008951
_publ_section_title
;
Structure prediction by ZEFSAII (Michael W. Deem and Ramdas Pophale) SiO2 
 PCOD9008951
Probable space group: P -1
;
_chemical_formula_sum "Si O2"
_cell_formula_units_Z 12
_cell_length_a 10.929769
_cell_length_b 7.144579
_cell_length_c 9.123703
_cell_angle_alpha 129.903776
_cell_angle_beta 123.123125
_cell_angle_gamma 61.966790
_cell_volume 449.748264
_symmetry_space_group_name_H-M "P -1"
_symmetry_group_IT_number 2
_symmetry_cell_setting 'triclinic'
loop_
_space_group_symop_operation_xyz
x,y,z
-x,-y,-z
loop_
_atom_site_type_symbol
_atom_site_label
_atom_site_fract_x
_atom_site_fract_y
_atom_site_fract_z
Si Si1 0.320401 0.227833 0.929792
Si Si2 0.773313 0.570969 0.764152
Si Si3 0.756992 0.090436 0.882658
Si Si4 0.368116 0.697250 0.685511
Si Si5 0.557033 0.764590 0.310710
Si Si6 0.026633 0.317052 0.291974
O O1 0.360675 0.210787 0.775454
O O2 0.268439 0.962891 0.783101
O O3 0.206673 0.432105 0.050088
O O4 0.471134 0.254725 0.132442
O O5 0.666173 0.390896 0.544083
O O6 0.710055 0.862010 0.827869
O O7 0.916407 0.538228 0.736010
O O8 0.607155 0.286688 0.862810
O O9 0.500000 0.000000 0.500000
O O10 0.844472 0.930315 0.725876
O O11 0.880193 0.212481 0.103273
O O12 0.350081 0.460836 0.651308
O O13 0.000000 0.500000 0.500000
#
# Coordination Sequence:
#
# PCOD9008951 Si02
#       6
#     2   2   2   2   2   2
#     4  11  26  40  64 101 137 170 215 265 326 396
#     4  10  21  39  66  94 130 168 222 264 323 385
#     4   9  20  38  61  97 127 162 227 258 315 389
#     4  11  24  41  64  99 137 173 205 265 335 391
#     4  12  24  42  65 103 136 172 210 265 334 393
#     4   9  20  37  63  93 122 171 225 269 311 381
#
# _framework density 26.681591999999998
#
# number of rings (size 3 to 8) (size 9 to 14) (size 15 to 20)
#    1.000    0.667    1.667    3.000    7.000    0.000 
#    3.000    0.000    0.000    2.000    0.000    3.500 
#    0.000    0.000    0.000    0.000    0.000    0.000 
#
# Total GULP energy -67001.019256 kJ/mol
# GULP energy per Si atom -5583.418271 kJ/mol
# Density = 2.662086 g / cm^3
# Si number density = 26.681592 Si / 1000 Ang^3
#
#
#
# Elastic Constant Matrix: (Units=GPa)
#
#
# Indices 1 2 3 4 5 6 
#
# 1 139.1880 46.6752 71.2627 -7.3949 -50.5546 17.4164
# 2 46.6752 72.3182 63.0448 9.2146 -23.4987 5.1594
# 3 71.2627 63.0448 187.8934 29.1455 -54.2618 6.4277
# 4 -7.3949 9.2146 29.1455 41.7609 -4.2649 0.4557
# 5 -50.5546 -23.4987 -54.2618 -4.2649 70.0297 -4.1161
# 6 17.4164 5.1594 6.4277 0.4557 -4.1161 35.5041
#
#
#
# Elastic Compliance Matrix: (Units=1/GPa)
#
#
# Indices 1 2 3 4 5 6 
#
# 1 0.013091 -0.004855 -0.002287 0.005662 0.006120 -0.004665
# 2 -0.004855 0.021631 -0.005226 -0.002029 -0.000410 0.000163
# 3 -0.002287 -0.005226 0.009983 -0.005816 0.004012 0.000614
# 4 0.005662 -0.002029 -0.005816 0.029535 0.000596 -0.001739
# 5 0.006120 -0.000410 0.004012 0.000596 0.021636 -0.001168
# 6 -0.004665 0.000163 0.000614 -0.001739 -0.001168 0.030206
#
#
# Mechanical properties :
#
#
# Convention : Reuss Voigt Hill
#
# Bulk Modulus (GPa) = 50.07887 84.59615 67.33751
# Shear Modulus (GPa) = 31.75108 44.02007 37.88558
#
# Velocity S-wave (km/s) = 3.45338 4.06622 3.77226
# Velocity P-wave (km/s) = 5.89160 7.33622 6.65323
#
# Compressibility (1/GPa) = 0.01996850
#
# Stress axis : x y z
#
# Youngs Moduli (GPa) = 76.38842 46.23068 100.17078
#
# Poissons Ratio (x) = 0.22446 0.22912
# Poissons Ratio (y) = 0.37088 0.52344
# Poissons Ratio (z) = 0.17472 0.24158
#
# Static dielectric constant tensor:
#      x y z
#    x 2.144050 0.001270 -0.013210 
#    y 0.001270 2.182910 -0.019430 
#    z -0.013210 -0.019430 2.112880 
# 
# From -- ./inp_files/236057.got.cif
#   From: 2010.05.17/outbox.cif.g08.bks.cpg/sg2_119_cif.got.tgz:236057.got - 2010.06.03 11:33:40.
