data_PCOD9008946
_publ_section_title
;
Structure prediction by ZEFSAII (Michael W. Deem and Ramdas Pophale) SiO2 
 PCOD9008946
Probable space group: P -1
;
_chemical_formula_sum "Si O2"
_cell_formula_units_Z 16
_cell_length_a 14.306016
_cell_length_b 9.434988
_cell_length_c 11.352437
_cell_angle_alpha 45.818775
_cell_angle_beta 61.457610
_cell_angle_gamma 39.045528
_cell_volume 685.365776
_symmetry_space_group_name_H-M "P -1"
_symmetry_group_IT_number 2
_symmetry_cell_setting 'triclinic'
loop_
_space_group_symop_operation_xyz
x,y,z
-x,-y,-z
loop_
_atom_site_type_symbol
_atom_site_label
_atom_site_fract_x
_atom_site_fract_y
_atom_site_fract_z
Si Si1 0.897925 0.787622 0.470755
Si Si2 0.835458 0.798672 0.938960
Si Si3 0.848236 0.251949 0.635854
Si Si4 0.829743 0.264285 0.908998
Si Si5 0.448415 0.374768 0.527036
Si Si6 0.289823 0.198373 0.224370
Si Si7 0.632153 0.131341 0.071165
Si Si8 0.402970 0.719293 0.755128
O O1 0.810340 0.792370 0.625935
O O2 0.000000 0.500000 0.500000
O O3 0.003257 0.820765 0.440408
O O4 0.770033 0.055325 0.311643
O O5 0.742504 0.840036 0.862149
O O6 0.855742 0.007619 0.793466
O O7 0.000000 0.500000 0.000000
O O8 0.743792 0.867044 0.073088
O O9 0.814506 0.367008 0.724621
O O10 0.725831 0.435258 0.500698
O O11 0.761876 0.512263 0.894073
O O12 0.734951 0.188635 0.009042
O O13 0.000000 0.000000 0.000000
O O14 0.500000 0.500000 0.500000
O O15 0.508455 0.330042 0.385014
O O16 0.536765 0.072736 0.699571
O O17 0.582879 0.141526 0.226757
O O18 0.493655 0.404511 0.923452
#
# Coordination Sequence:
#
# PCOD9008946 Si02
#       8
#     2   2   2   2   2   2   2   2
#     4  11  24  38  63  99 133 163 223 279 328 390
#     4  11  23  40  67  95 129 176 224 271 336 402
#     4  11  22  42  65  96 132 177 218 273 343 388
#     4  11  21  37  64  96 128 168 223 276 324 403
#     4  11  21  43  68  94 134 173 225 276 330 407
#     4  11  23  39  67  93 127 174 219 276 339 387
#     4  10  21  40  66  92 130 176 224 264 339 392
#     4  10  21  39  66  94 128 173 214 276 325 393
#
# _framework density 23.345196000000001
#
# number of rings (size 3 to 8) (size 9 to 14) (size 15 to 20)
#    0.000    1.250    5.000    2.250    1.750    2.000 
#    0.000    0.000    0.000    4.500    0.000    0.000 
#    0.000    0.000    0.000    0.000    0.000    0.000 
#
# Total GULP energy -89440.662761 kJ/mol
# GULP energy per Si atom -5590.041423 kJ/mol
# Density = 2.329206 g / cm^3
# Si number density = 23.345196 Si / 1000 Ang^3
#
#
#
# Elastic Constant Matrix: (Units=GPa)
#
#
# Indices 1 2 3 4 5 6 
#
# 1 127.3111 30.1316 36.2854 -15.8647 23.4899 -1.1556
# 2 30.1316 126.8016 37.1409 -7.1089 18.1119 11.3780
# 3 36.2854 37.1409 66.6547 -3.8933 31.3579 -4.2145
# 4 -15.8647 -7.1089 -3.8933 49.0850 -8.4338 13.3226
# 5 23.4899 18.1119 31.3579 -8.4338 34.4287 -8.6105
# 6 -1.1556 11.3780 -4.2145 13.3226 -8.6105 41.9048
#
#
#
# Elastic Compliance Matrix: (Units=1/GPa)
#
#
# Indices 1 2 3 4 5 6 
#
# 1 0.009878 -0.000604 -0.003674 0.002710 -0.002752 -0.001360
# 2 -0.000604 0.010090 -0.005029 0.001807 -0.000877 -0.004017
# 3 -0.003674 -0.005029 0.030716 -0.003716 -0.023561 0.000694
# 4 0.002710 0.001807 -0.003716 0.024038 0.004601 -0.007486
# 5 -0.002752 -0.000877 -0.023561 0.004601 0.055927 0.007822
# 6 -0.001360 -0.004017 0.000694 -0.007486 0.007822 0.028974
#
#
# Mechanical properties :
#
#
# Convention : Reuss Voigt Hill
#
# Bulk Modulus (GPa) = 31.18192 58.65371 44.91781
# Shear Modulus (GPa) = 26.46520 39.56433 33.01476
#
# Velocity S-wave (km/s) = 3.37062 4.12120 3.76466
# Velocity P-wave (km/s) = 5.34172 6.91555 6.17895
#
# Compressibility (1/GPa) = 0.03206987
#
# Stress axis : x y z
#
# Youngs Moduli (GPa) = 101.23556 99.10845 32.55630
#
# Poissons Ratio (x) = 0.05988 0.11961
# Poissons Ratio (y) = 0.06116 0.16373
# Poissons Ratio (z) = 0.37192 0.49842
#
# Static dielectric constant tensor:
#      x y z
#    x 2.019800 -0.118460 -0.066620 
#    y -0.118460 2.004830 0.055410 
#    z -0.066620 0.055410 1.982770 
# 
# From -- ./inp_files/446956.got.cif
#   From: 2010.05.17/outbox.cif.g08.bks.cpg/sg2_224_cif.got.tgz:446956.got - 2010.06.03 11:33:40.
