data_PCOD9008539
_publ_section_title
;
Structure prediction by ZEFSAII (Michael W. Deem and Ramdas Pophale) SiO2 
 PCOD9008539
Probable space group: P -1
;
_chemical_formula_sum "Si O2"
_cell_formula_units_Z 16
_cell_length_a 7.425851
_cell_length_b 23.728034
_cell_length_c 13.759193
_cell_angle_alpha 27.412196
_cell_angle_beta 46.679418
_cell_angle_gamma 58.082702
_cell_volume 788.322759
_symmetry_space_group_name_H-M "P -1"
_symmetry_group_IT_number 2
_symmetry_cell_setting 'triclinic'
loop_
_space_group_symop_operation_xyz
x,y,z
-x,-y,-z
loop_
_atom_site_type_symbol
_atom_site_label
_atom_site_fract_x
_atom_site_fract_y
_atom_site_fract_z
Si Si1 0.222844 0.355020 0.240389
Si Si2 0.793303 0.982395 0.820806
Si Si3 0.300915 0.808329 0.339480
Si Si4 0.761667 0.561259 0.508765
Si Si5 0.403065 0.302729 0.039251
Si Si6 0.116239 0.798888 0.933302
Si Si7 0.497267 0.365363 0.321306
Si Si8 0.062938 0.871604 0.634554
O O1 0.298295 0.303992 0.186801
O O2 0.380709 0.326623 0.318184
O O3 0.928445 0.294563 0.463382
O O4 0.286966 0.506082 0.972632
O O5 0.804178 0.071632 0.772817
O O6 0.545757 0.868421 0.093256
O O7 0.761360 0.072557 0.605905
O O8 0.040311 0.925401 0.804869
O O9 0.396397 0.737852 0.502497
O O10 0.706265 0.597730 0.584271
O O11 0.000000 0.500000 0.500000
O O12 0.861857 0.688375 0.216270
O O13 0.516314 0.449644 0.743259
O O14 0.180990 0.226697 0.169140
O O15 0.640550 0.236025 0.054317
O O16 0.166532 0.811488 0.780327
O O17 0.000000 0.000000 0.500000
#
# Coordination Sequence:
#
# PCOD9008539 Si02
#       8
#     2   2   2   2   2   2   2   2
#     4  10  22  39  64  97 116 156 206 243 310 366
#     4  10  22  39  59  86 121 161 208 243 292 356
#     4  11  21  41  62  84 128 161 196 255 295 360
#     4   9  19  40  63  91 123 149 198 254 303 362
#     4  10  21  39  65  89 121 157 201 255 303 358
#     4  10  21  41  62  88 122 161 197 257 305 346
#     4  10  21  40  65  91 122 158 195 254 307 357
#     4  10  22  40  59  89 120 160 208 245 293 360
#
# _framework density 20.296256
#
# number of rings (size 3 to 8) (size 9 to 14) (size 15 to 20)
#    0.000    2.000    2.500    0.375    1.750    2.500 
#    9.000    3.750    0.000    0.000    0.000    0.000 
#    0.000    0.000    0.000    0.000    0.000    0.000 
#
# Total GULP energy -89167.517889 kJ/mol
# GULP energy per Si atom -5572.969868 kJ/mol
# Density = 2.025006 g / cm^3
# Si number density = 20.296256 Si / 1000 Ang^3
#
#
#
# Elastic Constant Matrix: (Units=GPa)
#
#
# Indices 1 2 3 4 5 6 
#
# 1 39.8409 4.3808 13.6056 -4.3389 -4.4532 -2.1386
# 2 4.3808 69.3737 -19.2497 -12.1646 1.0799 -7.0608
# 3 13.6056 -19.2497 86.8588 2.0191 -9.1755 -7.6743
# 4 -4.3389 -12.1646 2.0191 5.5159 1.3826 2.1935
# 5 -4.4532 1.0799 -9.1755 1.3826 17.8336 -2.9702
# 6 -2.1386 -7.0608 -7.6743 2.1935 -2.9702 18.8251
#
#
#
# Elastic Compliance Matrix: (Units=1/GPa)
#
#
# Indices 1 2 3 4 5 6 
#
# 1 0.029913 0.001691 -0.004787 0.028722 0.002533 -0.000866
# 2 0.001691 0.025694 0.004320 0.055106 -0.002385 0.004793
# 3 -0.004787 0.004320 0.015020 -0.005425 0.008212 0.009127
# 4 0.028722 0.055106 -0.005425 0.343928 -0.029451 -0.023001
# 5 0.002533 -0.002385 0.008212 -0.029451 0.066125 0.016606
# 6 -0.000866 0.004793 0.009127 -0.023001 0.016606 0.063841
#
#
# Mechanical properties :
#
#
# Convention : Reuss Voigt Hill
#
# Bulk Modulus (GPa) = 13.68433 21.50517 17.59475
# Shear Modulus (GPa) = 8.82717 21.59071 15.20894
#
# Velocity S-wave (km/s) = 2.08773 3.26510 2.74039
# Velocity P-wave (km/s) = 3.54519 4.98329 4.32444
#
# Compressibility (1/GPa) = 0.07307627
#
# Stress axis : x y z
#
# Youngs Moduli (GPa) = 33.42986 38.91917 66.57674
#
# Poissons Ratio (x) = -0.06583 0.31873
# Poissons Ratio (y) = -0.05655 -0.28761
# Poissons Ratio (z) = 0.16004 -0.16813
#
# Static dielectric constant tensor:
#      x y z
#    x 1.699860 0.000850 0.005730 
#    y 0.000850 1.805070 0.004910 
#    z 0.005730 0.004910 1.756840 
# 
# From -- ./inp_files/370957.got.cif
#   From: 2010.05.17/outbox.cif.g08.bks.cpg/sg2_186_cif.got.tgz:370957.got - 2010.06.03 11:33:40.
