data_PCOD9008480
_publ_section_title
;
Structure prediction by ZEFSAII (Michael W. Deem and Ramdas Pophale) SiO2 
 PCOD9008480
Probable space group: P -1
;
_chemical_formula_sum "Si O2"
_cell_formula_units_Z 12
_cell_length_a 5.813812
_cell_length_b 9.210745
_cell_length_c 12.732970
_cell_angle_alpha 80.567827
_cell_angle_beta 112.053240
_cell_angle_gamma 123.957656
_cell_volume 523.244698
_symmetry_space_group_name_H-M "P -1"
_symmetry_group_IT_number 2
_symmetry_cell_setting 'triclinic'
loop_
_space_group_symop_operation_xyz
x,y,z
-x,-y,-z
loop_
_atom_site_type_symbol
_atom_site_label
_atom_site_fract_x
_atom_site_fract_y
_atom_site_fract_z
Si Si1 0.349419 0.562976 0.381986
Si Si2 0.567993 0.926504 0.921994
Si Si3 0.718036 0.270537 0.281995
Si Si4 0.596290 0.550468 0.828459
Si Si5 0.116080 0.273056 0.935331
Si Si6 0.330552 0.034821 0.559247
O O1 0.500000 0.500000 0.500000
O O2 0.383760 0.532966 0.267092
O O3 0.470793 0.763100 0.399694
O O4 0.000354 0.440856 0.355840
O O5 0.275599 0.773999 0.833095
O O6 0.724454 0.829573 0.999548
O O7 0.787336 0.107502 0.873987
O O8 0.500000 0.000000 0.000000
O O9 0.441588 0.292324 0.236183
O O10 0.694307 0.105210 0.347826
O O11 0.291169 0.408903 0.855260
O O12 0.830444 0.620763 0.957913
O O13 0.500000 0.000000 0.500000
O O14 0.000000 0.000000 0.500000
#
# Coordination Sequence:
#
# PCOD9008480 Si02
#       6
#     2   2   2   2   2   2
#     4  12  26  46  71 100 143 191 243 308 368 442
#     4  10  21  39  65 100 140 181 239 297 364 441
#     4  11  26  43  68 105 137 192 242 301 370 440
#     4  10  23  43  69 100 143 189 245 300 372 441
#     4   9  21  41  65 101 141 187 237 302 364 439
#     4  12  29  50  75 108 146 195 252 312 372 442
#
# _framework density 22.933820000000001
#
# number of rings (size 3 to 8) (size 9 to 14) (size 15 to 20)
#    0.000    1.333    1.667    2.000    7.000    1.333 
#    0.000    5.000    0.000    0.000    0.000    0.000 
#    0.000    0.000    0.000    0.000    0.000    0.000 
#
# Total GULP energy -66883.382939 kJ/mol
# GULP energy per Si atom -5573.615245 kJ/mol
# Density = 2.288162 g / cm^3
# Si number density = 22.933820 Si / 1000 Ang^3
#
#
#
# Elastic Constant Matrix: (Units=GPa)
#
#
# Indices 1 2 3 4 5 6 
#
# 1 61.3191 27.9232 40.3224 11.9808 -9.4665 -16.7167
# 2 27.9232 171.3042 40.4307 13.8366 10.2529 -15.1449
# 3 40.3224 40.4307 85.6073 12.5660 0.0474 -10.7594
# 4 11.9808 13.8366 12.5660 50.6275 -3.9125 -2.3934
# 5 -9.4665 10.2529 0.0474 -3.9125 35.8727 15.2465
# 6 -16.7167 -15.1449 -10.7594 -2.3934 15.2465 38.7405
#
#
#
# Elastic Compliance Matrix: (Units=1/GPa)
#
#
# Indices 1 2 3 4 5 6 
#
# 1 0.027010 -0.001346 -0.010931 -0.002663 0.004643 0.006101
# 2 -0.001346 0.007173 -0.002184 -0.001252 -0.003834 0.003048
# 3 -0.010931 -0.002184 0.018134 -0.001501 -0.002619 0.000404
# 4 -0.002663 -0.001252 -0.001501 0.021223 0.002747 -0.001826
# 5 0.004643 -0.003834 -0.002619 0.002747 0.036654 -0.014479
# 6 0.006101 0.003048 0.000404 -0.001826 -0.014479 0.035334
#
#
# Mechanical properties :
#
#
# Convention : Reuss Voigt Hill
#
# Bulk Modulus (GPa) = 42.74790 59.50924 51.12857
# Shear Modulus (GPa) = 27.43498 39.01842 33.22670
#
# Velocity S-wave (km/s) = 3.46246 4.12922 3.81045
# Velocity P-wave (km/s) = 5.88770 6.98129 6.45769
#
# Compressibility (1/GPa) = 0.02339296
#
# Stress axis : x y z
#
# Youngs Moduli (GPa) = 37.02389 139.41815 55.14484
#
# Poissons Ratio (x) = 0.18768 0.60279
# Poissons Ratio (y) = 0.04984 0.12046
# Poissons Ratio (z) = 0.40471 0.30455
#
# Static dielectric constant tensor:
#      x y z
#    x 1.776050 0.047220 0.072430 
#    y 0.047220 1.878450 -0.018160 
#    z 0.072430 -0.018160 1.510560 
# 
# From -- ./inp_files/26584.got.cif
#   From: 2010.05.17/outbox.cif.g08.bks.cpg/sg2_14_cif.got.tgz:26584.got - 2010.06.03 11:33:40.
