data_PCOD9008958
_publ_section_title
;
Structure prediction by ZEFSAII (Michael W. Deem and Ramdas Pophale) SiO2 
 PCOD9008958
Probable space group: P -1
;
_chemical_formula_sum "Si O2"
_cell_formula_units_Z 16
_cell_length_a 10.542507
_cell_length_b 9.390693
_cell_length_c 16.334753
_cell_angle_alpha 52.686769
_cell_angle_beta 144.347886
_cell_angle_gamma 139.201525
_cell_volume 615.714576
_symmetry_space_group_name_H-M "P -1"
_symmetry_group_IT_number 2
_symmetry_cell_setting 'triclinic'
loop_
_space_group_symop_operation_xyz
x,y,z
-x,-y,-z
loop_
_atom_site_type_symbol
_atom_site_label
_atom_site_fract_x
_atom_site_fract_y
_atom_site_fract_z
Si Si1 0.668373 0.027194 0.489776
Si Si2 0.590024 0.664144 0.369464
Si Si3 0.407228 0.643818 0.936355
Si Si4 0.170232 0.650575 0.268778
Si Si5 0.417922 0.250827 0.309211
Si Si6 0.017134 0.900122 0.644345
Si Si7 0.767174 0.234413 0.053196
Si Si8 0.095883 0.860663 0.006495
O O1 0.382835 0.812383 0.389617
O O2 0.715857 0.955864 0.626695
O O3 0.881417 0.029096 0.545213
O O4 0.652483 0.233399 0.404188
O O5 0.340383 0.602573 0.314849
O O6 0.519263 0.473763 0.334482
O O7 0.823859 0.725851 0.535160
O O8 0.694510 0.899804 0.303213
O O9 0.320655 0.627008 0.993056
O O10 0.115925 0.546527 0.779459
O O11 0.500000 0.500000 0.000000
O O12 0.652468 0.890208 0.961442
O O13 0.109783 0.790667 0.128957
O O14 0.189551 0.188811 0.146510
O O15 0.051558 0.801538 0.778653
O O16 0.869593 0.272355 0.001449
O O17 0.500000 0.000000 0.000000
#
# Coordination Sequence:
#
# PCOD9008958 Si02
#       8
#     2   2   2   2   2   2   2   2
#     4  10  24  43  66  98 141 180 224 287 342 413
#     4  10  23  40  70 101 134 180 236 284 346 409
#     4  11  25  42  68 101 138 183 225 282 357 413
#     4  11  25  46  71 102 138 181 236 288 340 418
#     4  11  23  42  67 100 138 180 228 282 350 406
#     4  10  21  43  66  98 138 179 232 289 338 413
#     4  10  21  39  66  94 134 176 226 280 337 400
#     4  11  24  46  70 101 140 183 233 286 342 408
#
# _framework density 25.986066999999998
#
# number of rings (size 3 to 8) (size 9 to 14) (size 15 to 20)
#    0.000    1.500    1.250    3.000    1.750    7.500 
#    0.000    0.000    0.000    0.000    0.000    0.000 
#    0.000    0.000    0.000    0.000    0.000    0.000 
#
# Total GULP energy -89418.680149 kJ/mol
# GULP energy per Si atom -5588.667509 kJ/mol
# Density = 2.592692 g / cm^3
# Si number density = 25.986067 Si / 1000 Ang^3
#
#
#
# Elastic Constant Matrix: (Units=GPa)
#
#
# Indices 1 2 3 4 5 6 
#
# 1 62.1494 21.1039 26.5689 -9.0310 12.7277 -14.3383
# 2 21.1039 142.3920 46.8787 11.4860 23.7766 -20.3671
# 3 26.5689 46.8787 152.7108 -6.2679 6.3643 -3.8583
# 4 -9.0310 11.4860 -6.2679 27.1308 0.5107 11.7431
# 5 12.7277 23.7766 6.3643 0.5107 43.5771 -15.7996
# 6 -14.3383 -20.3671 -3.8583 11.7431 -15.7996 48.0854
#
#
#
# Elastic Compliance Matrix: (Units=1/GPa)
#
#
# Indices 1 2 3 4 5 6 
#
# 1 0.019868 -0.001612 -0.002509 0.005746 -0.003753 0.002404
# 2 -0.001612 0.009853 -0.002811 -0.007153 -0.002861 0.004274
# 3 -0.002509 -0.002811 0.007907 0.003001 0.000384 -0.001911
# 4 0.005746 -0.007153 0.003001 0.048750 -0.003964 -0.014283
# 5 -0.003753 -0.002861 0.000384 -0.003964 0.028509 0.008035
# 6 0.002404 0.004274 -0.001911 -0.014283 0.008035 0.029298
#
#
# Mechanical properties :
#
#
# Convention : Reuss Voigt Hill
#
# Bulk Modulus (GPa) = 42.07787 60.70614 51.39201
# Shear Modulus (GPa) = 30.12598 41.27205 35.69901
#
# Velocity S-wave (km/s) = 3.40856 3.98959 3.71047
# Velocity P-wave (km/s) = 5.63193 6.68088 6.17871
#
# Compressibility (1/GPa) = 0.02376546
#
# Stress axis : x y z
#
# Youngs Moduli (GPa) = 50.33143 101.48946 126.47704
#
# Poissons Ratio (x) = 0.16357 0.31733
# Poissons Ratio (y) = 0.08112 0.35549
# Poissons Ratio (z) = 0.12628 0.28525
#
# Static dielectric constant tensor:
#      x y z
#    x 2.096620 -0.048050 0.006490 
#    y -0.048050 2.149970 -0.064590 
#    z 0.006490 -0.064590 2.066520 
# 
# From -- ./inp_files/395225.got.cif
#   From: 2010.05.17/outbox.cif.g08.bks.cpg/sg2_198_cif.got.tgz:395225.got - 2010.06.03 11:33:40.
