data_PCOD9008375
_publ_section_title
;
Structure prediction by ZEFSAII (Michael W. Deem and Ramdas Pophale) SiO2 
 PCOD9008375
Probable space group: P -1
;
_chemical_formula_sum "Si O2"
_cell_formula_units_Z 14
_cell_length_a 15.052154
_cell_length_b 7.101129
_cell_length_c 8.862781
_cell_angle_alpha 85.665512
_cell_angle_beta 47.263738
_cell_angle_gamma 66.340669
_cell_volume 609.444343
_symmetry_space_group_name_H-M "P -1"
_symmetry_group_IT_number 2
_symmetry_cell_setting 'triclinic'
loop_
_space_group_symop_operation_xyz
x,y,z
-x,-y,-z
loop_
_atom_site_type_symbol
_atom_site_label
_atom_site_fract_x
_atom_site_fract_y
_atom_site_fract_z
Si Si1 0.083489 0.467598 0.561794
Si Si2 0.089812 0.707931 0.141286
Si Si3 0.399292 0.192175 0.208948
Si Si4 0.850952 0.139795 0.497700
Si Si5 0.500684 0.287651 0.370231
Si Si6 0.277027 0.746876 0.683443
Si Si7 0.662954 0.409318 0.937181
O O1 0.237209 0.265875 0.388688
O O2 0.104083 0.672749 0.561904
O O3 0.000000 0.500000 0.500000
O O4 0.993540 0.419591 0.790276
O O5 0.222493 0.565023 0.099052
O O6 0.146116 0.791091 0.934026
O O7 0.984593 0.910597 0.350252
O O8 0.453734 0.158424 0.319892
O O9 0.402635 0.398830 0.117039
O O10 0.500000 0.000000 0.000000
O O11 0.768871 0.167132 0.435807
O O12 0.748890 0.192570 0.753810
O O13 0.369172 0.487058 0.582630
O O14 0.623107 0.174895 0.356515
O O15 0.565287 0.392604 0.173863
#
# Coordination Sequence:
#
# PCOD9008375 Si02
#       7
#     2   2   2   2   2   2   2
#     4  11  23  41  63  97 134 160 216 279 314 382
#     4  11  23  40  66  94 129 175 212 264 334 381
#     4  11  23  38  64  99 127 162 215 272 327 375
#     4  11  22  40  65  97 125 168 221 262 326 385
#     4  10  21  41  65  87 130 170 209 270 318 383
#     4  10  22  40  63  93 129 171 219 256 321 399
#     4  10  21  39  64  95 121 167 219 270 318 377
#
# _framework density 22.971744999999999
#
# number of rings (size 3 to 8) (size 9 to 14) (size 15 to 20)
#    0.000    1.429    5.714    1.286    2.000    1.714 
#    0.000    0.000    3.143    3.429    0.000    0.000 
#    0.000    0.000    0.000    0.000    0.000    0.000 
#
# Total GULP energy -78244.766132 kJ/mol
# GULP energy per Si atom -5588.911867 kJ/mol
# Density = 2.291946 g / cm^3
# Si number density = 22.971745 Si / 1000 Ang^3
#
#
#
# Elastic Constant Matrix: (Units=GPa)
#
#
# Indices 1 2 3 4 5 6 
#
# 1 160.8432 20.6829 20.5855 9.2855 -2.1292 -22.9124
# 2 20.6829 43.0195 11.5368 6.3480 -6.9714 1.7614
# 3 20.5855 11.5368 102.7526 9.2612 -1.6872 8.7087
# 4 9.2855 6.3480 9.2612 26.9576 -1.3403 4.9128
# 5 -2.1292 -6.9714 -1.6872 -1.3403 36.7172 -1.3735
# 6 -22.9124 1.7614 8.7087 4.9128 -1.3735 23.0430
#
#
#
# Elastic Compliance Matrix: (Units=1/GPa)
#
#
# Indices 1 2 3 4 5 6 
#
# 1 0.008558 -0.003537 -0.001882 -0.003327 -0.000002 0.010200
# 2 -0.003537 0.026794 -0.001567 -0.003611 0.004531 -0.003933
# 3 -0.001882 -0.001567 0.010906 -0.001733 -0.000175 -0.005514
# 4 -0.003327 -0.003611 -0.001733 0.041748 0.000144 -0.011270
# 5 -0.000002 0.004531 -0.000175 0.000144 0.028144 0.001365
# 6 0.010200 -0.003933 -0.005514 -0.011270 0.001365 0.058408
#
#
# Mechanical properties :
#
#
# Convention : Reuss Voigt Hill
#
# Bulk Modulus (GPa) = 30.97231 45.80284 38.38757
# Shear Modulus (GPa) = 25.08891 34.26424 29.67658
#
# Velocity S-wave (km/s) = 3.30838 3.86629 3.59816
# Velocity P-wave (km/s) = 5.30150 6.31767 5.83176
#
# Compressibility (1/GPa) = 0.03228691
#
# Stress axis : x y z
#
# Youngs Moduli (GPa) = 116.84902 37.32187 91.69472
#
# Poissons Ratio (x) = 0.13200 0.17258
# Poissons Ratio (y) = 0.41326 0.14365
# Poissons Ratio (z) = 0.21992 0.05847
#
# Static dielectric constant tensor:
#      x y z
#    x 1.931350 0.032230 -0.027020 
#    y 0.032230 1.853810 -0.021650 
#    z -0.027020 -0.021650 1.850150 
# 
# From -- ./inp_files/174417.got.cif
#   From: 2010.05.17/outbox.cif.g08.bks.cpg/sg2_88_cif.got.tgz:174417.got - 2010.06.03 11:33:40.
