data_PCOD9008655
_publ_section_title
;
Structure prediction by ZEFSAII (Michael W. Deem and Ramdas Pophale) SiO2 
 PCOD9008655
Probable space group: P -1
;
_chemical_formula_sum "Si O2"
_cell_formula_units_Z 12
_cell_length_a 17.432008
_cell_length_b 4.952885
_cell_length_c 7.653869
_cell_angle_alpha 116.953058
_cell_angle_beta 112.279860
_cell_angle_gamma 76.197122
_cell_volume 543.281888
_symmetry_space_group_name_H-M "P -1"
_symmetry_group_IT_number 2
_symmetry_cell_setting 'triclinic'
loop_
_space_group_symop_operation_xyz
x,y,z
-x,-y,-z
loop_
_atom_site_type_symbol
_atom_site_label
_atom_site_fract_x
_atom_site_fract_y
_atom_site_fract_z
Si Si1 0.461380 0.639658 0.737930
Si Si2 0.086172 0.133500 0.669952
Si Si3 0.689800 0.745423 0.605199
Si Si4 0.914371 0.159584 0.049343
Si Si5 0.429487 0.896456 0.158158
Si Si6 0.794400 0.148821 0.610024
O O1 0.388483 0.443325 0.558426
O O2 0.537716 0.410686 0.805545
O O3 0.498692 0.866221 0.699032
O O4 0.425800 0.827982 0.929982
O O5 0.074652 0.496417 0.781278
O O6 0.110069 0.013138 0.848290
O O7 0.153048 0.013736 0.548330
O O8 0.000000 0.000000 0.500000
O O9 0.764025 0.493583 0.637709
O O10 0.656784 0.962507 0.798038
O O11 0.716842 0.955699 0.533289
O O12 0.848360 0.151438 0.834128
O O13 0.000000 0.000000 0.000000
#
# Coordination Sequence:
#
# PCOD9008655 Si02
#       6
#     2   2   2   2   2   2
#     4  10  21  39  65  93 126 175 226 269 325 396
#     4  12  26  46  75  99 133 177 232 287 336 407
#     4  12  24  41  64  96 142 172 218 280 340 401
#     4  12  26  46  75  99 133 177 232 287 336 407
#     4  10  21  39  65  93 126 175 226 269 325 396
#     4  12  28  43  66 104 138 180 224 278 352 401
#
# _framework density 22.087980999999999
#
# number of rings (size 3 to 8) (size 9 to 14) (size 15 to 20)
#    0.000    0.667    1.667    6.000    2.333    4.000 
#    0.000    0.000    0.000    0.000    0.000    0.000 
#    0.000    0.000    0.000    0.000    0.000    0.000 
#
# Total GULP energy -67212.003888 kJ/mol
# GULP energy per Si atom -5601.000324 kJ/mol
# Density = 2.203771 g / cm^3
# Si number density = 22.087981 Si / 1000 Ang^3
#
#
#
# Elastic Constant Matrix: (Units=GPa)
#
#
# Indices 1 2 3 4 5 6 
#
# 1 111.2040 38.8207 42.2740 26.2476 -48.9272 -9.4269
# 2 38.8207 114.6924 9.8271 27.9748 -27.7558 -2.8601
# 3 42.2740 9.8271 80.0601 13.3781 -31.0844 -15.3407
# 4 26.2476 27.9748 13.3781 37.5291 -4.8001 -6.0589
# 5 -48.9272 -27.7558 -31.0844 -4.8001 44.6841 6.5070
# 6 -9.4269 -2.8601 -15.3407 -6.0589 6.5070 38.0022
#
#
#
# Elastic Compliance Matrix: (Units=1/GPa)
#
#
# Indices 1 2 3 4 5 6 
#
# 1 0.022109 0.001481 -0.000717 -0.013465 0.023304 -0.000831
# 2 0.001481 0.013308 0.003675 -0.010945 0.011392 -0.000843
# 3 -0.000717 0.003675 0.019835 -0.006782 0.013890 0.004646
# 4 -0.013465 -0.010945 -0.006782 0.044458 -0.022061 0.003964
# 5 0.023304 0.011392 0.013890 -0.022061 0.062554 -0.001983
# 6 -0.000831 -0.000843 0.004646 0.003964 -0.001983 0.028892
#
#
# Mechanical properties :
#
#
# Convention : Reuss Voigt Hill
#
# Bulk Modulus (GPa) = 15.59339 54.20000 34.89670
# Shear Modulus (GPa) = 24.55142 38.37872 31.46507
#
# Velocity S-wave (km/s) = 3.33758 4.17290 3.77839
# Velocity P-wave (km/s) = 4.68269 6.91440 5.90494
#
# Compressibility (1/GPa) = 0.06412974
#
# Stress axis : x y z
#
# Youngs Moduli (GPa) = 45.23041 75.14185 50.41667
#
# Poissons Ratio (x) = -0.11130 0.03615
# Poissons Ratio (y) = -0.06700 -0.18526
# Poissons Ratio (z) = 0.03243 -0.27612
#
# Static dielectric constant tensor:
#      x y z
#    x 1.786460 -0.000580 0.025880 
#    y -0.000580 1.809800 0.015700 
#    z 0.025880 0.015700 1.822390 
# 
# From -- ./inp_files/289289.got.cif
#   From: 2010.05.17/outbox.cif.g08.bks.cpg/sg2_145_cif.got.tgz:289289.got - 2010.06.03 11:33:40.
