data_PCOD9008076
_publ_section_title
;
Structure prediction by ZEFSAII (Michael W. Deem and Ramdas Pophale) SiO2 
 PCOD9008076
Probable space group: P -1
;
_chemical_formula_sum "Si O2"
_cell_formula_units_Z 15
_cell_length_a 8.143088
_cell_length_b 8.910703
_cell_length_c 11.706653
_cell_angle_alpha 69.044497
_cell_angle_beta 94.591946
_cell_angle_gamma 56.470260
_cell_volume 617.783661
_symmetry_space_group_name_H-M "P -1"
_symmetry_group_IT_number 2
_symmetry_cell_setting 'triclinic'
loop_
_space_group_symop_operation_xyz
x,y,z
-x,-y,-z
loop_
_atom_site_type_symbol
_atom_site_label
_atom_site_fract_x
_atom_site_fract_y
_atom_site_fract_z
Si Si1 0.171093 0.273744 0.705152
Si Si2 0.126125 0.138920 0.160161
Si Si3 0.508762 0.866913 0.434544
Si Si4 0.500000 0.500000 0.500000
Si Si5 0.548759 0.547262 0.865050
Si Si6 0.442198 0.160538 0.071091
Si Si7 0.824094 0.247231 0.772737
Si Si8 0.235751 0.512723 0.802768
O O1 0.278218 0.229858 0.600405
O O2 0.145227 0.466658 0.705880
O O3 0.965320 0.290462 0.701099
O O4 0.345701 0.067381 0.842572
O O5 0.240499 0.167873 0.059613
O O6 0.933902 0.353977 0.144355
O O7 0.304151 0.021775 0.301012
O O8 0.069341 0.993296 0.157429
O O9 0.509908 0.676734 0.514413
O O10 0.500000 0.000000 0.500000
O O11 0.614321 0.350882 0.657632
O O12 0.569282 0.720350 0.849221
O O13 0.751602 0.358094 0.861002
O O14 0.343545 0.619372 0.760825
O O15 0.500000 0.500000 0.000000
O O16 0.421806 0.288014 0.926290
#
# Coordination Sequence:
#
# PCOD9008076 Si02
#       8
#     2   2   2   1   2   2   2   2
#     4  11  24  41  67  98 132 177 218 278 336 401
#     4  10  22  41  63  96 132 173 218 277 332 398
#     4  10  24  46  67  98 135 172 229 284 343 402
#     4  10  24  44  72  98 132 184 222 294 338 396
#     4  10  22  40  65  93 132 177 218 275 335 397
#     4  10  21  39  63  96 132 177 214 269 334 397
#     4  11  24  45  65  97 135 174 231 276 340 404
#     4  11  21  39  63  98 132 173 222 268 332 406
#
# _framework density 24.280342999999998
#
# number of rings (size 3 to 8) (size 9 to 14) (size 15 to 20)
#    0.000    1.600    0.000    4.800    5.600    2.667 
#    4.800    7.333    0.000    0.000    0.000    0.000 
#    0.000    0.000    0.000    0.000    0.000    0.000 
#
# Total GULP energy -83600.695622 kJ/mol
# GULP energy per Si atom -5573.379708 kJ/mol
# Density = 2.422508 g / cm^3
# Si number density = 24.280343 Si / 1000 Ang^3
#
#
#
# Elastic Constant Matrix: (Units=GPa)
#
#
# Indices 1 2 3 4 5 6 
#
# 1 57.5887 8.9912 2.6753 15.5692 0.4851 30.8140
# 2 8.9912 139.9736 36.2819 32.8912 6.7069 36.9846
# 3 2.6753 36.2819 54.0009 12.6045 -7.2218 7.0784
# 4 15.5692 32.8912 12.6045 46.9455 2.9784 7.7391
# 5 0.4851 6.7069 -7.2218 2.9784 24.6962 3.7841
# 6 30.8140 36.9846 7.0784 7.7391 3.7841 55.5645
#
#
#
# Elastic Compliance Matrix: (Units=1/GPa)
#
#
# Indices 1 2 3 4 5 6 
#
# 1 0.029245 0.005351 0.000127 -0.010572 0.002114 -0.018468
# 2 0.005351 0.012804 -0.006344 -0.007286 -0.003110 -0.009455
# 3 0.000127 -0.006344 0.024568 -0.002906 0.009132 0.000805
# 4 -0.010572 -0.007286 -0.002906 0.029723 -0.003347 0.007171
# 5 0.002114 -0.003110 0.009132 -0.003347 0.044806 -0.002851
# 6 -0.018468 -0.009455 0.000805 0.007171 -0.002851 0.033625
#
#
# Mechanical properties :
#
#
# Convention : Reuss Voigt Hill
#
# Bulk Modulus (GPa) = 15.41169 38.60664 27.00917
# Shear Modulus (GPa) = 25.23576 39.01556 32.12566
#
# Velocity S-wave (km/s) = 3.22739 4.01294 3.64141
# Velocity P-wave (km/s) = 4.49992 6.11608 5.36916
#
# Compressibility (1/GPa) = 0.06488580
#
# Stress axis : x y z
#
# Youngs Moduli (GPa) = 34.19401 78.09816 40.70312
#
# Poissons Ratio (x) = -0.41790 -0.00517
# Poissons Ratio (y) = -0.18297 0.25821
# Poissons Ratio (z) = -0.00434 0.49544
#
# Static dielectric constant tensor:
#      x y z
#    x 2.001610 0.035620 0.027220 
#    y 0.035620 1.946050 -0.027340 
#    z 0.027220 -0.027340 2.098270 
# 
# From -- ./inp_files/381996.got.cif
#   From: 2010.05.17/outbox.cif.g08.bks.cpg/sg2_191_cif.got.tgz:381996.got - 2010.06.03 11:33:40.
