data_PCOD9008693
_publ_section_title
;
Structure prediction by ZEFSAII (Michael W. Deem and Ramdas Pophale) SiO2 
 PCOD9008693
Probable space group: P -1
;
_chemical_formula_sum "Si O2"
_cell_formula_units_Z 14
_cell_length_a 11.703404
_cell_length_b 9.255347
_cell_length_c 15.603695
_cell_angle_alpha 58.707449
_cell_angle_beta 30.031900
_cell_angle_gamma 41.858497
_cell_volume 523.165734
_symmetry_space_group_name_H-M "P -1"
_symmetry_group_IT_number 2
_symmetry_cell_setting 'triclinic'
loop_
_space_group_symop_operation_xyz
x,y,z
-x,-y,-z
loop_
_atom_site_type_symbol
_atom_site_label
_atom_site_fract_x
_atom_site_fract_y
_atom_site_fract_z
Si Si1 0.286100 0.148142 0.415748
Si Si2 0.919447 0.758805 0.960781
Si Si3 0.815326 0.286825 0.810833
Si Si4 0.463479 0.186730 0.020385
Si Si5 0.888447 0.395907 0.424945
Si Si6 0.463465 0.315292 0.669964
Si Si7 0.286976 0.845007 0.762800
O O1 0.559718 0.145060 0.257419
O O2 0.029956 0.300179 0.610767
O O3 0.099435 0.255596 0.415064
O O4 0.439986 0.880217 0.398685
O O5 0.162364 0.597411 0.774308
O O6 0.125305 0.741353 0.907424
O O7 0.696382 0.714154 0.140342
O O8 0.671724 0.029520 0.015703
O O9 0.500000 0.500000 0.000000
O O10 0.661367 0.247285 0.846750
O O11 0.057390 0.087320 0.785419
O O12 0.107256 0.386123 0.219773
O O13 0.500000 0.000000 0.000000
O O14 0.761250 0.280258 0.508031
O O15 0.577604 0.655599 0.570209
#
# Coordination Sequence:
#
# PCOD9008693 Si02
#       7
#     2   2   2   2   2   2   2
#     4  12  23  41  70  97 126 176 218 265 320 380
#     4   9  21  41  59  95 132 166 209 266 315 379
#     4  11  26  46  63  94 133 170 217 268 326 386
#     4  11  23  40  65  94 130 170 211 263 325 383
#     4  11  23  43  67  98 131 168 220 266 319 386
#     4  10  21  39  65  94 131 161 216 267 315 372
#     4  10  24  44  65  91 134 172 213 264 329 386
#
# _framework density 26.760162999999999
#
# number of rings (size 3 to 8) (size 9 to 14) (size 15 to 20)
#    0.000    1.429    1.429    3.000    2.000    2.857 
#    5.143    4.286    0.000    0.000    0.000    0.000 
#    0.000    0.000    0.000    0.000    0.000    0.000 
#
# Total GULP energy -78169.059360 kJ/mol
# GULP energy per Si atom -5583.504240 kJ/mol
# Density = 2.669926 g / cm^3
# Si number density = 26.760163 Si / 1000 Ang^3
#
#
#
# Elastic Constant Matrix: (Units=GPa)
#
#
# Indices 1 2 3 4 5 6 
#
# 1 119.7406 37.5288 31.1821 -14.3184 -32.1841 18.8088
# 2 37.5288 67.6206 34.5977 15.5016 -22.7908 24.4068
# 3 31.1821 34.5977 124.1103 23.2987 -15.0424 8.6811
# 4 -14.3184 15.5016 23.2987 66.3557 18.4054 -10.4648
# 5 -32.1841 -22.7908 -15.0424 18.4054 41.8865 -5.4698
# 6 18.8088 24.4068 8.6811 -10.4648 -5.4698 47.0552
#
#
#
# Elastic Compliance Matrix: (Units=1/GPa)
#
#
# Indices 1 2 3 4 5 6 
#
# 1 0.011943 -0.004365 -0.001605 0.002625 0.004934 -0.001057
# 2 -0.004365 0.035223 -0.001858 -0.016917 0.020281 -0.017587
# 3 -0.001605 -0.001858 0.010319 -0.004617 0.003368 -0.000934
# 4 0.002625 -0.016917 -0.004617 0.028699 -0.019803 0.012657
# 5 0.004934 0.020281 0.003368 -0.019803 0.047038 -0.012049
# 6 -0.001057 -0.017587 -0.000934 0.012657 -0.012049 0.032382
#
#
# Mechanical properties :
#
#
# Convention : Reuss Voigt Hill
#
# Bulk Modulus (GPa) = 23.90678 57.56539 40.73609
# Shear Modulus (GPa) = 25.61431 44.93702 35.27567
#
# Velocity S-wave (km/s) = 3.09719 4.10231 3.63466
# Velocity P-wave (km/s) = 4.66296 6.63302 5.73324
#
# Compressibility (1/GPa) = 0.04182914
#
# Stress axis : x y z
#
# Youngs Moduli (GPa) = 83.72833 28.39069 96.91028
#
# Poissons Ratio (x) = 0.12392 0.15552
# Poissons Ratio (y) = 0.36545 0.18009
# Poissons Ratio (z) = 0.13437 0.05276
#
# Static dielectric constant tensor:
#      x y z
#    x 2.200730 0.106490 -0.032350 
#    y 0.106490 2.310860 -0.026620 
#    z -0.032350 -0.026620 2.063870 
# 
# From -- ./inp_files/235483.got.cif
#   From: 2010.05.17/outbox.cif.g08.bks.cpg/sg2_118_cif.got.tgz:235483.got - 2010.06.03 11:33:40.
