data_PCOD9008309
_publ_section_title
;
Structure prediction by ZEFSAII (Michael W. Deem and Ramdas Pophale) SiO2 
 PCOD9008309
Probable space group: P -1
;
_chemical_formula_sum "Si O2"
_cell_formula_units_Z 14
_cell_length_a 16.943907
_cell_length_b 8.389355
_cell_length_c 19.178147
_cell_angle_alpha 135.881671
_cell_angle_beta 160.090788
_cell_angle_gamma 44.196804
_cell_volume 636.053461
_symmetry_space_group_name_H-M "P -1"
_symmetry_group_IT_number 2
_symmetry_cell_setting 'triclinic'
loop_
_space_group_symop_operation_xyz
x,y,z
-x,-y,-z
loop_
_atom_site_type_symbol
_atom_site_label
_atom_site_fract_x
_atom_site_fract_y
_atom_site_fract_z
Si Si1 0.787637 0.047828 0.989100
Si Si2 0.153250 0.645730 0.736069
Si Si3 0.351710 0.314056 0.641309
Si Si4 0.455647 0.286634 0.134666
Si Si5 0.679995 0.073951 0.618676
Si Si6 0.613303 0.752102 0.090732
Si Si7 0.734951 0.569265 0.829980
O O1 0.605063 0.253259 0.868457
O O2 0.659765 0.825123 0.816177
O O3 0.835134 0.136546 0.133485
O O4 0.044355 0.984033 0.147000
O O5 0.233392 0.419115 0.780740
O O6 0.879733 0.660482 0.494857
O O7 0.352856 0.680810 0.857879
O O8 0.361595 0.537527 0.671546
O O9 0.337488 0.089841 0.512397
O O10 0.295631 0.390873 0.099667
O O11 0.585637 0.022701 0.173629
O O12 0.321268 0.269439 0.943644
O O13 0.617454 0.351081 0.642425
O O14 0.500000 0.000000 0.500000
O O15 0.000000 0.500000 0.000000
#
# Coordination Sequence:
#
# PCOD9008309 Si02
#       7
#     2   2   2   2   2   2   2
#     4  10  21  41  63  89 128 167 201 258 315 368
#     4  10  21  42  64  90 126 166 208 250 318 375
#     4  11  23  39  64  94 124 164 210 256 312 379
#     4  11  21  39  65  94 126 162 211 258 316 365
#     4  10  21  39  64  93 122 160 215 262 308 367
#     4  10  22  40  65  94 125 166 208 261 309 375
#     4  10  21  41  65  89 126 168 203 258 316 368
#
# _framework density 22.010729000000001
#
# number of rings (size 3 to 8) (size 9 to 14) (size 15 to 20)
#    0.000    1.714    4.286    0.000    0.000    2.286 
#    0.000    4.286    0.000    0.000    0.000    0.000 
#    0.000    0.000    0.000    0.000    0.000    0.000 
#
# Total GULP energy -78088.865152 kJ/mol
# GULP energy per Si atom -5577.776082 kJ/mol
# Density = 2.196063 g / cm^3
# Si number density = 22.010729 Si / 1000 Ang^3
#
#
#
# Elastic Constant Matrix: (Units=GPa)
#
#
# Indices 1 2 3 4 5 6 
#
# 1 112.7620 26.0551 15.5725 -4.2161 22.6904 -25.5036
# 2 26.0551 135.1327 22.8271 31.8829 11.6491 3.5735
# 3 15.5725 22.8271 79.6684 5.4218 16.1799 4.4042
# 4 -4.2161 31.8829 5.4218 39.7988 -2.7778 5.2488
# 5 22.6904 11.6491 16.1799 -2.7778 28.3109 5.0918
# 6 -25.5036 3.5735 4.4042 5.2488 5.0918 37.2529
#
#
#
# Elastic Compliance Matrix: (Units=1/GPa)
#
#
# Indices 1 2 3 4 5 6 
#
# 1 0.014734 -0.002211 -0.000382 0.000918 -0.012741 0.011957
# 2 -0.002211 0.010244 -0.001427 -0.008295 -0.002290 -0.000846
# 3 -0.000382 -0.001427 0.014689 -0.001338 -0.007516 -0.000646
# 4 0.000918 -0.008295 -0.001338 0.033110 0.007428 -0.004098
# 5 -0.012741 -0.002290 -0.007516 0.007428 0.054395 -0.016096
# 6 0.011957 -0.000846 -0.000646 -0.004098 -0.016096 0.037964
#
#
# Mechanical properties :
#
#
# Convention : Reuss Voigt Hill
#
# Bulk Modulus (GPa) = 31.61822 50.71918 41.16870
# Shear Modulus (GPa) = 27.21548 38.61307 32.91428
#
# Velocity S-wave (km/s) = 3.52015 4.19296 3.87120
# Velocity P-wave (km/s) = 5.56040 6.82160 6.22303
#
# Compressibility (1/GPa) = 0.03162733
#
# Stress axis : x y z
#
# Youngs Moduli (GPa) = 67.86891 97.61626 68.07874
#
# Poissons Ratio (x) = 0.21580 0.02604
# Poissons Ratio (y) = 0.15004 0.09714
# Poissons Ratio (z) = 0.02596 0.13928
#
# Static dielectric constant tensor:
#      x y z
#    x 1.845680 -0.047000 -0.032200 
#    y -0.047000 1.885780 0.026700 
#    z -0.032200 0.026700 1.839860 
# 
# From -- ./inp_files/135178.got.cif
#   From: 2010.05.17/outbox.cif.g08.bks.cpg/sg2_68_cif.got.tgz:135178.got - 2010.06.03 11:33:40.
