data_PCOD9008613
_publ_section_title
;
Structure prediction by ZEFSAII (Michael W. Deem and Ramdas Pophale) SiO2 
 PCOD9008613
Probable space group: P -1
;
_chemical_formula_sum "Si O2"
_cell_formula_units_Z 16
_cell_length_a 16.058000
_cell_length_b 5.144491
_cell_length_c 10.785832
_cell_angle_alpha 94.956696
_cell_angle_beta 55.117140
_cell_angle_gamma 68.217541
_cell_volume 624.406199
_symmetry_space_group_name_H-M "P -1"
_symmetry_group_IT_number 2
_symmetry_cell_setting 'triclinic'
loop_
_space_group_symop_operation_xyz
x,y,z
-x,-y,-z
loop_
_atom_site_type_symbol
_atom_site_label
_atom_site_fract_x
_atom_site_fract_y
_atom_site_fract_z
Si Si1 0.777005 0.325479 0.416422
Si Si2 0.082152 0.340329 0.303323
Si Si3 0.981463 0.725020 0.179949
Si Si4 0.596318 0.163743 0.446136
Si Si5 0.593797 0.590567 0.781889
Si Si6 0.751130 0.385199 0.877151
Si Si7 0.469699 0.216674 0.790659
Si Si8 0.807520 0.642177 0.164378
O O1 0.695125 0.190082 0.441335
O O2 0.707423 0.529389 0.600168
O O3 0.782055 0.504383 0.301432
O O4 0.907039 0.047170 0.323498
O O5 0.002319 0.473621 0.252850
O O6 0.175599 0.453446 0.212792
O O7 0.000000 0.500000 0.500000
O O8 0.158494 0.975564 0.221480
O O9 0.898243 0.748940 0.137389
O O10 0.109775 0.622585 0.012225
O O11 0.500000 0.500000 0.500000
O O12 0.527375 0.074997 0.600620
O O13 0.680230 0.936910 0.257138
O O14 0.648730 0.484460 0.865343
O O15 0.538544 0.387614 0.780838
O O16 0.498311 0.939245 0.846473
O O17 0.668866 0.526577 0.075155
#
# Coordination Sequence:
#
# PCOD9008613 Si02
#       8
#     2   2   2   2   2   2   2   2
#     4  10  21  39  65  92 124 179 223 271 334 395
#     4  12  28  46  66 102 134 177 221 283 346 390
#     4  10  24  40  65  92 131 172 235 272 324 403
#     4  10  23  39  61  98 134 168 214 278 341 401
#     4  11  22  42  70  96 134 176 227 272 326 412
#     4  12  26  43  70  99 134 178 220 279 343 389
#     4  11  23  43  66 101 133 178 223 271 332 408
#     4  10  21  42  65  92 125 179 226 270 332 393
#
# _framework density 25.624345000000002
#
# number of rings (size 3 to 8) (size 9 to 14) (size 15 to 20)
#    0.000    1.250    1.250    3.750    5.250    1.500 
#    0.000    0.000    0.000    0.000    0.000    0.000 
#    0.000    0.000    0.000    0.000    0.000    0.000 
#
# Total GULP energy -89529.139597 kJ/mol
# GULP energy per Si atom -5595.571225 kJ/mol
# Density = 2.556602 g / cm^3
# Si number density = 25.624345 Si / 1000 Ang^3
#
#
#
# Elastic Constant Matrix: (Units=GPa)
#
#
# Indices 1 2 3 4 5 6 
#
# 1 75.1028 11.1403 20.9903 14.1735 -23.8074 5.1920
# 2 11.1403 122.9283 34.2518 35.9330 -5.0123 -5.5985
# 3 20.9903 34.2518 205.8539 35.2850 -15.7992 -12.9894
# 4 14.1735 35.9330 35.2850 54.5203 -6.9674 -10.3936
# 5 -23.8074 -5.0123 -15.7992 -6.9674 36.4771 -0.6679
# 6 5.1920 -5.5985 -12.9894 -10.3936 -0.6679 41.0738
#
#
#
# Elastic Compliance Matrix: (Units=1/GPa)
#
#
# Indices 1 2 3 4 5 6 
#
# 1 0.017708 -0.000172 -0.000587 -0.003354 0.010582 -0.003124
# 2 -0.000172 0.010153 -0.000625 -0.006345 -0.000207 -0.000401
# 3 -0.000587 -0.000625 0.005670 -0.002700 0.001491 0.001123
# 4 -0.003354 -0.006345 -0.002700 0.026280 0.000888 0.005370
# 5 0.010582 -0.000207 0.001491 0.000888 0.035106 -0.000099
# 6 -0.003124 -0.000401 0.001123 0.005370 -0.000099 0.026399
#
#
# Mechanical properties :
#
#
# Convention : Reuss Voigt Hill
#
# Bulk Modulus (GPa) = 32.50798 59.62779 46.06788
# Shear Modulus (GPa) = 37.21958 48.91441 43.06699
#
# Velocity S-wave (km/s) = 3.81531 4.37384 4.10409
# Velocity P-wave (km/s) = 5.66769 6.98769 6.36202
#
# Compressibility (1/GPa) = 0.03076167
#
# Stress axis : x y z
#
# Youngs Moduli (GPa) = 56.47196 98.49710 176.37064
#
# Poissons Ratio (x) = 0.01691 0.10357
# Poissons Ratio (y) = 0.00970 0.11031
# Poissons Ratio (z) = 0.03316 0.06160
#
# Static dielectric constant tensor:
#      x y z
#    x 2.130820 0.028170 0.108950 
#    y 0.028170 1.985060 0.069110 
#    z 0.108950 0.069110 2.136700 
# 
# From -- ./inp_files/85103.got.cif
#   From: 2010.05.17/outbox.cif.g08.bks.cpg/sg2_43_cif.got.tgz:85103.got - 2010.06.03 11:33:40.
