data_PCOD9008808
_publ_section_title
;
Structure prediction by ZEFSAII (Michael W. Deem and Ramdas Pophale) SiO2 
 PCOD9008808
Probable space group: P -1
;
_chemical_formula_sum "Si O2"
_cell_formula_units_Z 15
_cell_length_a 9.418693
_cell_length_b 14.286697
_cell_length_c 11.331362
_cell_angle_alpha 117.026918
_cell_angle_beta 111.455108
_cell_angle_gamma 122.693462
_cell_volume 661.849582
_symmetry_space_group_name_H-M "P -1"
_symmetry_group_IT_number 2
_symmetry_cell_setting 'triclinic'
loop_
_space_group_symop_operation_xyz
x,y,z
-x,-y,-z
loop_
_atom_site_type_symbol
_atom_site_label
_atom_site_fract_x
_atom_site_fract_y
_atom_site_fract_z
Si Si1 0.533623 0.396471 0.427610
Si Si2 0.000000 0.500000 0.000000
Si Si3 0.142813 0.120413 0.355040
Si Si4 0.153061 0.498752 0.623141
Si Si5 0.434755 0.592945 0.152456
Si Si6 0.042790 0.178409 0.713339
Si Si7 0.111569 0.650526 0.873277
Si Si8 0.239038 0.931672 0.685098
O O1 0.500000 0.500000 0.500000
O O2 0.274702 0.190162 0.304785
O O3 0.563515 0.377057 0.289550
O O4 0.849427 0.549362 0.663188
O O5 0.989705 0.568600 0.919967
O O6 0.683149 0.359358 0.863251
O O7 0.394236 0.325332 0.627311
O O8 0.867260 0.034217 0.244796
O O9 0.094657 0.980450 0.324026
O O10 0.944050 0.277206 0.451776
O O11 0.000000 0.500000 0.500000
O O12 0.180850 0.574878 0.798977
O O13 0.677086 0.715290 0.196337
O O14 0.167769 0.357712 0.911552
O O15 0.846445 0.091874 0.490304
O O16 0.418961 0.889334 0.096879
#
# Coordination Sequence:
#
# PCOD9008808 Si02
#       8
#     2   1   2   2   2   2   2   2
#     4  11  23  47  72  94 137 184 230 283 330 396
#     4  12  20  40  66 104 136 170 210 280 354 394
#     4  11  21  42  68  99 134 174 229 279 336 403
#     4  10  24  46  68  92 135 185 230 269 334 408
#     4  10  21  39  65  98 142 175 212 277 340 412
#     4  10  22  40  68 102 135 178 227 268 352 410
#     4  11  25  43  71  99 138 179 221 282 350 399
#     4  11  22  41  71 100 134 177 227 281 339 412
#
# _framework density 22.66376
#
# number of rings (size 3 to 8) (size 9 to 14) (size 15 to 20)
#    0.000    1.333    2.667    4.000    0.000    4.267 
#    4.800    4.000    0.000    0.000    0.000    0.000 
#    0.000    0.000    0.000    0.000    0.000    0.000 
#
# Total GULP energy -83595.193242 kJ/mol
# GULP energy per Si atom -5573.012883 kJ/mol
# Density = 2.261218 g / cm^3
# Si number density = 22.663760 Si / 1000 Ang^3
#
#
#
# Elastic Constant Matrix: (Units=GPa)
#
#
# Indices 1 2 3 4 5 6 
#
# 1 83.7446 25.5387 18.0592 -5.5020 11.1651 6.0467
# 2 25.5387 135.6286 23.7988 31.3994 -7.8434 6.4330
# 3 18.0592 23.7988 61.4204 17.6071 5.7907 6.5625
# 4 -5.5020 31.3994 17.6071 20.7912 -9.8156 -4.1394
# 5 11.1651 -7.8434 5.7907 -9.8156 24.9806 -2.3488
# 6 6.0467 6.4330 6.5625 -4.1394 -2.3488 39.1301
#
#
#
# Elastic Compliance Matrix: (Units=1/GPa)
#
#
# Indices 1 2 3 4 5 6 
#
# 1 0.017950 -0.008075 -0.011198 0.028944 0.003760 0.003719
# 2 -0.008075 0.016871 0.010210 -0.043268 -0.011260 -0.008491
# 3 -0.011198 0.010210 0.040082 -0.069602 -0.029918 -0.015829
# 4 0.028944 -0.043268 -0.069602 0.228012 0.083289 0.043433
# 5 0.003760 -0.011260 -0.029918 0.083289 0.076327 0.019680
# 6 0.003719 -0.008491 -0.015829 0.043433 0.019680 0.034808
#
#
# Mechanical properties :
#
#
# Convention : Reuss Voigt Hill
#
# Bulk Modulus (GPa) = 17.61314 46.17633 31.89473
# Shear Modulus (GPa) = 11.08395 31.20683 21.14539
#
# Velocity S-wave (km/s) = 2.21387 3.71475 3.05783
# Velocity P-wave (km/s) = 3.78462 6.23040 5.15467
#
# Compressibility (1/GPa) = 0.05677581
#
# Stress axis : x y z
#
# Youngs Moduli (GPa) = 55.70988 59.27482 24.94871
#
# Poissons Ratio (x) = 0.47863 0.27938
# Poissons Ratio (y) = 0.44985 -0.25471
# Poissons Ratio (z) = 0.62385 -0.60517
#
# Static dielectric constant tensor:
#      x y z
#    x 1.872060 0.025090 -0.013690 
#    y 0.025090 1.847230 -0.030180 
#    z -0.013690 -0.030180 1.871940 
# 
# From -- ./inp_files/397666.got.cif
#   From: 2010.05.17/outbox.cif.g08.bks.cpg/sg2_199_cif.got.tgz:397666.got - 2010.06.03 11:33:40.
