data_PCOD9008986
_publ_section_title
;
Structure prediction by ZEFSAII (Michael W. Deem and Ramdas Pophale) SiO2 
 PCOD9008986
Probable space group: P -1
;
_chemical_formula_sum "Si O2"
_cell_formula_units_Z 12
_cell_length_a 10.854969
_cell_length_b 10.075224
_cell_length_c 8.377193
_cell_angle_alpha 66.530615
_cell_angle_beta 137.149898
_cell_angle_gamma 94.279453
_cell_volume 535.719272
_symmetry_space_group_name_H-M "P -1"
_symmetry_group_IT_number 2
_symmetry_cell_setting 'triclinic'
loop_
_space_group_symop_operation_xyz
x,y,z
-x,-y,-z
loop_
_atom_site_type_symbol
_atom_site_label
_atom_site_fract_x
_atom_site_fract_y
_atom_site_fract_z
Si Si1 0.724077 0.344971 0.117148
Si Si2 0.725339 0.397394 0.749812
Si Si3 0.914106 0.050145 0.065763
Si Si4 0.741533 0.501916 0.375612
Si Si5 0.719356 0.019430 0.342778
Si Si6 0.707806 0.834200 0.117184
O O1 0.794697 0.378291 0.341715
O O2 0.755195 0.163599 0.219733
O O3 0.802934 0.398255 0.005055
O O4 0.492970 0.435884 0.859233
O O5 0.500000 0.500000 0.500000
O O6 0.812333 0.447820 0.648803
O O7 0.752430 0.219056 0.829896
O O8 0.832367 0.921302 0.110296
O O9 0.095987 0.054516 0.338594
O O10 0.000000 0.000000 0.000000
O O11 0.784284 0.650729 0.282030
O O12 0.696372 0.893123 0.260738
O O13 0.511605 0.100481 0.189615
#
# Coordination Sequence:
#
# PCOD9008986 Si02
#       6
#     2   2   2   2   2   2
#     4   9  17  36  65  91 130 177 215 274 341 396
#     4  10  21  39  66  95 135 181 219 274 348 405
#     4  12  25  43  69 102 138 177 228 285 339 408
#     4   9  19  37  62  95 127 173 225 271 333 403
#     4  10  21  41  70  95 129 180 230 275 340 407
#     4  10  22  42  70  96 132 178 229 281 336 405
#
# _framework density 22.399789999999999
#
# number of rings (size 3 to 8) (size 9 to 14) (size 15 to 20)
#    0.000    2.000    1.667    1.500    2.333    2.000 
#    3.000    4.167    0.000    0.000    0.000    0.000 
#    0.000    0.000    0.000    0.000    0.000    0.000 
#
# Total GULP energy -66992.637880 kJ/mol
# GULP energy per Si atom -5582.719823 kJ/mol
# Density = 2.234881 g / cm^3
# Si number density = 22.399790 Si / 1000 Ang^3
#
#
#
# Elastic Constant Matrix: (Units=GPa)
#
#
# Indices 1 2 3 4 5 6 
#
# 1 58.5294 21.8110 30.7366 9.2166 -2.4313 -6.5803
# 2 21.8110 89.1215 21.6658 -19.1207 2.5402 -0.1265
# 3 30.7366 21.6658 79.7391 -4.0085 9.0674 -0.1713
# 4 9.2166 -19.1207 -4.0085 30.3194 2.0557 1.9103
# 5 -2.4313 2.5402 9.0674 2.0557 22.4997 8.4644
# 6 -6.5803 -0.1265 -0.1713 1.9103 8.4644 31.9806
#
#
#
# Elastic Compliance Matrix: (Units=1/GPa)
#
#
# Indices 1 2 3 4 5 6 
#
# 1 0.029299 -0.008297 -0.010782 -0.016417 0.008157 0.004760
# 2 -0.008297 0.016178 -0.000176 0.013021 -0.003255 -0.001561
# 3 -0.010782 -0.000176 0.018072 0.006170 -0.008946 -0.000123
# 4 -0.016417 0.013021 0.006170 0.047830 -0.008648 -0.003862
# 5 0.008157 -0.003255 -0.008946 -0.008648 0.054736 -0.012353
# 6 0.004760 -0.001561 -0.000123 -0.003862 -0.012353 0.035742
#
#
# Mechanical properties :
#
#
# Convention : Reuss Voigt Hill
#
# Bulk Modulus (GPa) = 39.93892 41.75740 40.84816
# Shear Modulus (GPa) = 20.10352 27.17170 23.63761
#
# Velocity S-wave (km/s) = 2.99906 3.48664 3.25200
# Velocity P-wave (km/s) = 5.46454 5.90688 5.69001
#
# Compressibility (1/GPa) = 0.02503823
#
# Stress axis : x y z
#
# Youngs Moduli (GPa) = 34.13136 61.81179 55.33454
#
# Poissons Ratio (x) = 0.51287 0.59661
# Poissons Ratio (y) = 0.28320 0.00975
# Poissons Ratio (z) = 0.36800 0.01089
#
# Static dielectric constant tensor:
#      x y z
#    x 1.829980 -0.022810 -0.007360 
#    y -0.022810 1.773430 0.005710 
#    z -0.007360 0.005710 1.853290 
# 
# From -- ./inp_files/146217.got.cif
#   From: 2010.05.17/outbox.cif.g08.bks.cpg/sg2_74_cif.got.tgz:146217.got - 2010.06.03 11:33:40.
