data_PCOD9008834
_publ_section_title
;
Structure prediction by ZEFSAII (Michael W. Deem and Ramdas Pophale) SiO2 
 PCOD9008834
Probable space group: P -1
;
_chemical_formula_sum "Si O2"
_cell_formula_units_Z 14
_cell_length_a 7.471419
_cell_length_b 8.830608
_cell_length_c 14.102944
_cell_angle_alpha 104.311626
_cell_angle_beta 37.968490
_cell_angle_gamma 103.984161
_cell_volume 552.976658
_symmetry_space_group_name_H-M "P -1"
_symmetry_group_IT_number 2
_symmetry_cell_setting 'triclinic'
loop_
_space_group_symop_operation_xyz
x,y,z
-x,-y,-z
loop_
_atom_site_type_symbol
_atom_site_label
_atom_site_fract_x
_atom_site_fract_y
_atom_site_fract_z
Si Si1 0.754618 0.605342 0.461037
Si Si2 0.211671 0.147477 0.749143
Si Si3 0.674129 0.947990 0.596507
Si Si4 0.768084 0.890889 0.875265
Si Si5 0.361574 0.467602 0.155052
Si Si6 0.102915 0.805519 0.911513
Si Si7 0.622922 0.512534 0.247027
O O1 0.500000 0.500000 0.500000
O O2 0.698474 0.787019 0.504398
O O3 0.685059 0.554587 0.591119
O O4 0.066358 0.553925 0.296003
O O5 0.527942 0.087320 0.625973
O O6 0.032442 0.009933 0.744372
O O7 0.030649 0.157630 0.925605
O O8 0.420967 0.899017 0.773491
O O9 0.000000 0.000000 0.500000
O O10 0.693056 0.720669 0.833955
O O11 0.885145 0.843112 0.923161
O O12 0.500000 0.000000 0.000000
O O13 0.566776 0.538269 0.164072
O O14 0.249407 0.327794 0.732623
O O15 0.500000 0.500000 0.000000
O O16 0.167503 0.625178 0.849078
#
# Coordination Sequence:
#
# PCOD9008834 Si02
#       7
#     2   2   2   2   2   2   2
#     4  11  25  47  69  98 143 191 234 288 352 422
#     4  11  22  42  69 103 137 182 236 291 346 413
#     4  10  21  39  66 101 138 183 231 292 354 409
#     4  11  24  41  65 104 139 173 229 299 349 402
#     4  12  26  46  72 105 140 188 239 287 348 424
#     4  10  22  42  69 100 140 186 235 288 349 422
#     4  11  24  45  73 103 141 189 234 287 354 422
#
# _framework density 25.317523000000001
#
# number of rings (size 3 to 8) (size 9 to 14) (size 15 to 20)
#    0.000    1.143    0.000    7.714    0.000    6.857 
#    0.000    7.143    0.000    0.000    0.000    0.000 
#    0.000    0.000    0.000    0.000    0.000    0.000 
#
# Total GULP energy -78424.583665 kJ/mol
# GULP energy per Si atom -5601.755976 kJ/mol
# Density = 2.525990 g / cm^3
# Si number density = 25.317523 Si / 1000 Ang^3
#
#
#
# Elastic Constant Matrix: (Units=GPa)
#
#
# Indices 1 2 3 4 5 6 
#
# 1 95.3804 44.4637 34.6506 3.5851 -21.2830 4.4019
# 2 44.4637 199.4367 46.5213 37.4592 -18.8059 10.9293
# 3 34.6506 46.5213 156.9773 24.7148 -7.8635 -15.0692
# 4 3.5851 37.4592 24.7148 46.7136 -9.0113 -2.6910
# 5 -21.2830 -18.8059 -7.8635 -9.0113 45.1445 8.3287
# 6 4.4019 10.9293 -15.0692 -2.6910 8.3287 56.4397
#
#
#
# Elastic Compliance Matrix: (Units=1/GPa)
#
#
# Indices 1 2 3 4 5 6 
#
# 1 0.013968 -0.002402 -0.002802 0.003404 0.006167 -0.002120
# 2 -0.002402 0.006826 -0.000864 -0.004753 0.000931 -0.001729
# 3 -0.002802 -0.000864 0.007959 -0.003436 -0.001453 0.002561
# 4 0.003404 -0.004753 -0.003436 0.027661 0.004475 0.000396
# 5 0.006167 0.000931 -0.001453 0.004475 0.026975 -0.004816
# 6 -0.002120 -0.001729 0.002561 0.000396 -0.004816 0.019632
#
#
# Mechanical properties :
#
#
# Convention : Reuss Voigt Hill
#
# Bulk Modulus (GPa) = 60.17825 78.11838 69.14831
# Shear Modulus (GPa) = 41.42637 51.40348 46.41492
#
# Velocity S-wave (km/s) = 4.04947 4.51083 4.28636
# Velocity P-wave (km/s) = 6.75909 7.61922 7.20201
#
# Compressibility (1/GPa) = 0.01661730
#
# Stress axis : x y z
#
# Youngs Moduli (GPa) = 71.59178 146.48945 125.64580
#
# Poissons Ratio (x) = 0.35191 0.35205
# Poissons Ratio (y) = 0.17198 0.10854
# Poissons Ratio (z) = 0.20059 0.12655
#
# Static dielectric constant tensor:
#      x y z
#    x 2.020810 -0.003580 0.113270 
#    y -0.003580 1.993040 -0.113380 
#    z 0.113270 -0.113380 2.179210 
# 
# From -- ./inp_files/500224.got.cif
#   From: 2010.05.17/outbox.cif.g08.bks.cpg/sg2_251_cif.got.tgz:500224.got - 2010.06.03 11:33:40.
