data_PCOD9008700
_publ_section_title
;
Structure prediction by ZEFSAII (Michael W. Deem and Ramdas Pophale) SiO2 
 PCOD9008700
Probable space group: P -1
;
_chemical_formula_sum "Si O2"
_cell_formula_units_Z 15
_cell_length_a 10.793924
_cell_length_b 6.888723
_cell_length_c 14.690593
_cell_angle_alpha 58.136434
_cell_angle_beta 129.418177
_cell_angle_gamma 85.005695
_cell_volume 548.553312
_symmetry_space_group_name_H-M "P -1"
_symmetry_group_IT_number 2
_symmetry_cell_setting 'triclinic'
loop_
_space_group_symop_operation_xyz
x,y,z
-x,-y,-z
loop_
_atom_site_type_symbol
_atom_site_label
_atom_site_fract_x
_atom_site_fract_y
_atom_site_fract_z
Si Si1 0.831773 0.346810 0.923427
Si Si2 0.258629 0.948867 0.898087
Si Si3 0.354402 0.188404 0.660647
Si Si4 0.275206 0.030625 0.224034
Si Si5 0.570091 0.198914 0.464768
Si Si6 0.923363 0.876942 0.561508
Si Si7 0.000000 0.500000 0.500000
Si Si8 0.650511 0.665460 0.048218
O O1 0.773937 0.656111 0.855140
O O2 0.645505 0.471969 0.734419
O O3 0.821254 0.176029 0.042415
O O4 0.067451 0.147159 0.044688
O O5 0.302752 0.130132 0.936282
O O6 0.486798 0.677826 0.030466
O O7 0.111161 0.172921 0.692012
O O8 0.133983 0.278353 0.499254
O O9 0.238918 0.412457 0.634932
O O10 0.492821 0.197643 0.653374
O O11 0.516279 0.849219 0.851895
O O12 0.291631 0.876749 0.363883
O O13 0.500000 0.000000 0.500000
O O14 0.714735 0.082381 0.472306
O O15 0.880258 0.352996 0.225034
O O16 0.000000 0.000000 0.500000
#
# Coordination Sequence:
#
# PCOD9008700 Si02
#       8
#     2   2   2   2   2   2   1   2
#     4  10  21  40  67  95 133 165 222 266 328 394
#     4  10  21  45  63  94 129 178 217 270 330 396
#     4  11  23  43  65  91 130 170 219 271 332 388
#     4  10  23  41  67  98 129 176 213 280 330 394
#     4  10  21  39  65  94 135 169 207 275 331 390
#     4  12  24  39  67 101 126 170 226 278 332 390
#     4  10  22  44  68  86 134 170 214 278 320 392
#     4  10  24  39  65  88 132 173 213 272 331 388
#
# _framework density 27.344653000000001
#
# number of rings (size 3 to 8) (size 9 to 14) (size 15 to 20)
#    0.000    1.600    4.000    0.800    5.600    2.667 
#    7.200    1.333    0.000    0.000    0.000    0.000 
#    0.000    0.000    0.000    0.000    0.000    0.000 
#
# Total GULP energy -83799.466035 kJ/mol
# GULP energy per Si atom -5586.631069 kJ/mol
# Density = 2.728242 g / cm^3
# Si number density = 27.344653 Si / 1000 Ang^3
#
#
#
# Elastic Constant Matrix: (Units=GPa)
#
#
# Indices 1 2 3 4 5 6 
#
# 1 168.4809 35.7162 75.8633 -5.4023 20.6899 0.0976
# 2 35.7162 83.1685 32.0177 -15.0428 5.9827 15.8562
# 3 75.8633 32.0177 194.7243 5.6769 26.1577 8.2062
# 4 -5.4023 -15.0428 5.6769 28.7939 3.7022 3.9227
# 5 20.6899 5.9827 26.1577 3.7022 60.1948 -3.9205
# 6 0.0976 15.8562 8.2062 3.9227 -3.9205 26.5576
#
#
#
# Elastic Compliance Matrix: (Units=1/GPa)
#
#
# Indices 1 2 3 4 5 6 
#
# 1 0.007794 -0.002579 -0.002550 0.000495 -0.001211 0.002047
# 2 -0.002579 0.018246 -0.001571 0.011260 -0.001739 -0.012319
# 3 -0.002550 -0.001571 0.006744 -0.002247 -0.001830 -0.001075
# 4 0.000495 0.011260 -0.002247 0.043413 -0.003830 -0.013008
# 5 -0.001211 -0.001739 -0.001830 -0.003830 0.018553 0.004913
# 6 0.002047 -0.012319 -0.001075 -0.013008 0.004913 0.047980
#
#
# Mechanical properties :
#
#
# Convention : Reuss Voigt Hill
#
# Bulk Modulus (GPa) = 51.58929 81.50757 66.54843
# Shear Modulus (GPa) = 30.75195 43.29438 37.02316
#
# Velocity S-wave (km/s) = 3.35715 3.98337 3.68359
# Velocity P-wave (km/s) = 5.82534 7.14342 6.51779
#
# Compressibility (1/GPa) = 0.01938387
#
# Stress axis : x y z
#
# Youngs Moduli (GPa) = 128.30522 54.80518 148.28069
#
# Poissons Ratio (x) = 0.14134 0.37817
# Poissons Ratio (y) = 0.33089 0.23294
# Poissons Ratio (z) = 0.32723 0.08610
#
# Static dielectric constant tensor:
#      x y z
#    x 2.882730 -1.058400 -0.041430 
#    y -1.058400 3.687480 0.058550 
#    z -0.041430 0.058550 2.109870 
# 
# From -- ./inp_files/566446.got.cif
#   From: 2010.05.17/outbox.cif.g08.bks.cpg/sg2_284_cif.got.tgz:566446.got - 2010.06.03 11:33:40.
