data_PCOD9008151
_publ_section_title
;
Structure prediction by ZEFSAII (Michael W. Deem and Ramdas Pophale) SiO2 
 PCOD9008151
Probable space group: P -1
;
_chemical_formula_sum "Si O2"
_cell_formula_units_Z 16
_cell_length_a 16.153912
_cell_length_b 7.612635
_cell_length_c 18.894182
_cell_angle_alpha 51.787214
_cell_angle_beta 158.082638
_cell_angle_gamma 130.611816
_cell_volume 657.502881
_symmetry_space_group_name_H-M "P -1"
_symmetry_group_IT_number 2
_symmetry_cell_setting 'triclinic'
loop_
_space_group_symop_operation_xyz
x,y,z
-x,-y,-z
loop_
_atom_site_type_symbol
_atom_site_label
_atom_site_fract_x
_atom_site_fract_y
_atom_site_fract_z
Si Si1 0.301065 0.746800 0.570453
Si Si2 0.657437 0.835503 0.601280
Si Si3 0.328083 0.318568 0.608661
Si Si4 0.850043 0.587257 0.918556
Si Si5 0.181024 0.246146 0.788442
Si Si6 0.413242 0.435531 0.064002
Si Si7 0.182859 0.470763 0.317110
Si Si8 0.570383 0.123560 0.950878
O O1 0.264947 0.493480 0.571324
O O2 0.517407 0.769755 0.787928
O O3 0.080528 0.772204 0.432226
O O4 0.337090 0.923508 0.490236
O O5 0.805892 0.821617 0.792533
O O6 0.398360 0.691119 0.446303
O O7 0.747360 0.690255 0.647659
O O8 0.592103 0.419539 0.764574
O O9 0.163508 0.321158 0.411254
O O10 0.359228 0.102605 0.733763
O O11 0.000000 0.500000 0.000000
O O12 0.989802 0.576393 0.103070
O O13 0.359047 0.418219 0.834572
O O14 0.224008 0.348845 0.876074
O O15 0.248782 0.002790 0.905702
O O16 0.352857 0.612380 0.027577
O O17 0.500000 0.000000 0.000000
#
# Coordination Sequence:
#
# PCOD9008151 Si02
#       8
#     2   2   2   2   2   2   2   2
#     4  11  23  37  57  91 122 154 202 253 303 362
#     4   9  20  36  55  85 116 152 199 249 297 361
#     4  10  22  37  58  87 122 153 202 255 297 359
#     4   9  19  36  58  81 115 156 195 251 301 353
#     4  10  21  39  64  87 120 169 199 247 312 361
#     4   9  21  42  60  88 127 156 204 255 301 359
#     4   9  19  37  59  81 115 157 199 246 298 358
#     4   9  20  39  63  90 123 159 202 252 299 362
#
# _framework density 24.334493999999999
#
# number of rings (size 3 to 8) (size 9 to 14) (size 15 to 20)
#    0.000    2.500    0.000    1.125    5.250    5.000 
#    0.000    1.250    0.000    9.000    0.000    0.000 
#    0.000    0.000    0.000    0.000    0.000    0.000 
#
# Total GULP energy -89360.029666 kJ/mol
# GULP energy per Si atom -5585.001854 kJ/mol
# Density = 2.427911 g / cm^3
# Si number density = 24.334494 Si / 1000 Ang^3
#
#
#
# Elastic Constant Matrix: (Units=GPa)
#
#
# Indices 1 2 3 4 5 6 
#
# 1 75.6505 12.4893 30.8453 -9.8300 -17.2716 7.9671
# 2 12.4893 47.7407 37.6844 -26.9874 0.0856 3.6798
# 3 30.8453 37.6844 149.8842 -33.6753 -32.9221 18.0657
# 4 -9.8300 -26.9874 -33.6753 34.2968 5.1973 -7.7716
# 5 -17.2716 0.0856 -32.9221 5.1973 48.6304 -16.5521
# 6 7.9671 3.6798 18.0657 -7.7716 -16.5521 34.8986
#
#
#
# Elastic Compliance Matrix: (Units=1/GPa)
#
#
# Indices 1 2 3 4 5 6 
#
# 1 0.015305 -0.002859 -0.001435 -0.000019 0.004336 -0.000397
# 2 -0.002859 0.041789 -0.005341 0.028337 -0.007062 0.001972
# 3 -0.001435 -0.005341 0.010841 0.004944 0.006056 -0.000748
# 4 -0.000019 0.028337 0.004944 0.057995 -0.000476 0.007147
# 5 0.004336 -0.007062 0.006056 -0.000476 0.029908 0.010699
# 6 -0.000397 0.001972 -0.000748 0.007147 0.010699 0.035590
#
#
# Mechanical properties :
#
#
# Convention : Reuss Voigt Hill
#
# Bulk Modulus (GPa) = 20.54831 48.36814 34.45823
# Shear Modulus (GPa) = 22.03420 36.38225 29.20822
#
# Velocity S-wave (km/s) = 3.01237 3.87083 3.46827
# Velocity P-wave (km/s) = 4.53449 6.31643 5.49813
#
# Compressibility (1/GPa) = 0.04866579
#
# Stress axis : x y z
#
# Youngs Moduli (GPa) = 65.33764 23.92958 92.24318
#
# Poissons Ratio (x) = 0.06842 0.13234
# Poissons Ratio (y) = 0.18683 0.49264
# Poissons Ratio (z) = 0.09374 0.12780
#
# Static dielectric constant tensor:
#      x y z
#    x 1.960600 0.037390 -0.008000 
#    y 0.037390 1.980350 -0.010640 
#    z -0.008000 -0.010640 1.961010 
# 
# From -- ./inp_files/599737.got.cif
#   From: 2010.05.17/outbox.cif.g08.bks.cpg/sg2_300_cif.got.tgz:599737.got - 2010.06.03 11:33:40.
