data_PCOD9008423
_publ_section_title
;
Structure prediction by ZEFSAII (Michael W. Deem and Ramdas Pophale) SiO2 
 PCOD9008423
Probable space group: P -1
;
_chemical_formula_sum "Si O2"
_cell_formula_units_Z 13
_cell_length_a 7.936927
_cell_length_b 14.323101
_cell_length_c 13.435787
_cell_angle_alpha 28.868221
_cell_angle_beta 130.805373
_cell_angle_gamma 135.553156
_cell_volume 514.565556
_symmetry_space_group_name_H-M "P -1"
_symmetry_group_IT_number 2
_symmetry_cell_setting 'triclinic'
loop_
_space_group_symop_operation_xyz
x,y,z
-x,-y,-z
loop_
_atom_site_type_symbol
_atom_site_label
_atom_site_fract_x
_atom_site_fract_y
_atom_site_fract_z
Si Si1 0.811087 0.423204 0.313211
Si Si2 0.319790 0.534299 0.325034
Si Si3 0.483797 0.925905 0.320607
Si Si4 0.500000 0.000000 0.000000
Si Si5 0.688317 0.341770 0.124386
Si Si6 0.904592 0.105291 0.952651
Si Si7 0.193723 0.301787 0.308015
O O1 0.694419 0.265016 0.504686
O O2 0.649772 0.349718 0.219728
O O3 0.057041 0.408367 0.385645
O O4 0.900619 0.665809 0.157856
O O5 0.500000 0.500000 0.500000
O O6 0.345276 0.770537 0.107653
O O7 0.368208 0.464569 0.301872
O O8 0.360126 0.890944 0.194908
O O9 0.738990 0.897999 0.457057
O O10 0.503976 0.143399 0.176707
O O11 0.230020 0.036433 0.874763
O O12 0.936608 0.306974 0.231838
O O13 0.732121 0.572281 0.883849
O O14 0.000000 0.000000 0.000000
#
# Coordination Sequence:
#
# PCOD9008423 Si02
#       7
#     2   2   2   1   2   2   2
#     4  10  24  43  63  99 136 171 224 281 340 407
#     4  10  21  39  64  96 129 177 221 278 336 403
#     4  12  24  42  69  99 135 175 225 280 346 404
#     4  10  22  40  64  92 132 172 218 266 342 392
#     4  10  23  45  66  98 132 181 225 275 345 408
#     4  11  26  45  70 104 136 180 230 285 346 405
#     4  10  22  41  69  94 136 172 231 282 332 410
#
# _framework density 25.264030000000002
#
# number of rings (size 3 to 8) (size 9 to 14) (size 15 to 20)
#    0.000    1.538    0.000    4.154    6.462    1.846 
#    2.769    3.077    0.000    0.000    0.000    0.000 
#    0.000    0.000    0.000    0.000    0.000    0.000 
#
# Total GULP energy -72376.381569 kJ/mol
# GULP energy per Si atom -5567.413967 kJ/mol
# Density = 2.520653 g / cm^3
# Si number density = 25.264030 Si / 1000 Ang^3
#
#
#
# Elastic Constant Matrix: (Units=GPa)
#
#
# Indices 1 2 3 4 5 6 
#
# 1 104.6257 -4.6159 9.5210 -9.6821 17.4115 5.3784
# 2 -4.6159 91.3711 12.5785 -8.4911 11.8835 -23.2380
# 3 9.5210 12.5785 70.2872 6.7248 22.3508 -10.6369
# 4 -9.6821 -8.4911 6.7248 23.7817 3.9077 5.7818
# 5 17.4115 11.8835 22.3508 3.9077 36.9812 -5.7481
# 6 5.3784 -23.2380 -10.6369 5.7818 -5.7481 33.7139
#
#
#
# Elastic Compliance Matrix: (Units=1/GPa)
#
#
# Indices 1 2 3 4 5 6 
#
# 1 0.011712 0.001367 -0.000965 0.007529 -0.006737 -0.003670
# 2 0.001367 0.014026 -0.000676 0.004524 -0.004012 0.007777
# 3 -0.000965 -0.000676 0.018718 -0.005612 -0.009275 0.004975
# 4 0.007529 0.004524 -0.005612 0.052256 -0.008729 -0.010304
# 5 -0.006737 -0.004012 -0.009275 -0.008729 0.038567 0.003456
# 6 -0.003670 0.007777 0.004975 -0.010304 0.003456 0.039533
#
#
# Mechanical properties :
#
#
# Convention : Reuss Voigt Hill
#
# Bulk Modulus (GPa) = 22.77367 33.47234 28.12301
# Shear Modulus (GPa) = 26.31619 35.48206 30.89913
#
# Velocity S-wave (km/s) = 3.23096 3.75166 3.50100
# Velocity P-wave (km/s) = 4.79089 5.66078 5.24390
#
# Compressibility (1/GPa) = 0.04391035
#
# Stress axis : x y z
#
# Youngs Moduli (GPa) = 85.37934 71.29369 53.42361
#
# Poissons Ratio (x) = -0.09744 0.05154
# Poissons Ratio (y) = -0.11669 0.03609
# Poissons Ratio (z) = 0.08237 0.04816
#
# Static dielectric constant tensor:
#      x y z
#    x 2.009950 -0.016610 0.509290 
#    y -0.016610 2.107270 -0.137790 
#    z 0.509290 -0.137790 2.023750 
# 
# From -- ./inp_files/297074.got.cif
#   From: 2010.05.17/outbox.cif.g08.bks.cpg/sg2_149_cif.got.tgz:297074.got - 2010.06.03 11:33:40.
