data_PCOD9008549
_publ_section_title
;
Structure prediction by ZEFSAII (Michael W. Deem and Ramdas Pophale) SiO2 
 PCOD9008549
Probable space group: P -1
;
_chemical_formula_sum "Si O2"
_cell_formula_units_Z 16
_cell_length_a 10.540699
_cell_length_b 6.790422
_cell_length_c 16.176640
_cell_angle_alpha 41.683717
_cell_angle_beta 62.587069
_cell_angle_gamma 74.283951
_cell_volume 678.291906
_symmetry_space_group_name_H-M "P -1"
_symmetry_group_IT_number 2
_symmetry_cell_setting 'triclinic'
loop_
_space_group_symop_operation_xyz
x,y,z
-x,-y,-z
loop_
_atom_site_type_symbol
_atom_site_label
_atom_site_fract_x
_atom_site_fract_y
_atom_site_fract_z
Si Si1 0.884709 0.651300 0.236274
Si Si2 0.229368 0.762111 0.925587
Si Si3 0.697988 0.295505 0.265209
Si Si4 0.708694 0.152335 0.859927
Si Si5 0.144449 0.729537 0.383604
Si Si6 0.169953 0.377207 0.223381
Si Si7 0.424349 0.149617 0.856131
Si Si8 0.348434 0.394172 0.532562
O O1 0.817989 0.440388 0.247803
O O2 0.776054 0.605575 0.360352
O O3 0.036760 0.542933 0.240314
O O4 0.888166 0.004425 0.105991
O O5 0.245876 0.661172 0.859220
O O6 0.374618 0.975220 0.842950
O O7 0.205545 0.499305 0.081769
O O8 0.571157 0.496495 0.260030
O O9 0.654536 0.942254 0.395152
O O10 0.830450 0.163286 0.751702
O O11 0.705256 0.483628 0.795604
O O12 0.565377 0.047297 0.884329
O O13 0.702305 0.954519 0.006270
O O14 0.133679 0.025940 0.346525
O O15 0.285848 0.591304 0.417597
O O16 0.000000 0.500000 0.500000
O O17 0.500000 0.500000 0.500000
#
# Coordination Sequence:
#
# PCOD9008549 Si02
#       8
#     2   2   2   2   2   2   2   2
#     4  10  22  41  64  93 129 165 215 265 318 389
#     4   9  20  38  66 100 129 158 210 270 324 386
#     4  10  21  39  65  89 127 169 206 266 323 376
#     4  10  23  40  66  95 128 164 211 269 325 386
#     4  12  27  44  64  94 135 177 221 266 316 387
#     4  11  23  41  66  95 129 175 208 261 329 383
#     4   9  20  40  65  99 126 158 211 270 330 383
#     4  11  27  43  62  92 128 172 225 270 309 379
#
# _framework density 23.588664999999999
#
# number of rings (size 3 to 8) (size 9 to 14) (size 15 to 20)
#    0.000    1.750    0.000    2.625    7.000    5.000 
#    0.000    3.750    0.000    0.000    0.000    0.000 
#    0.000    0.000    0.000    0.000    0.000    0.000 
#
# Total GULP energy -89408.402827 kJ/mol
# GULP energy per Si atom -5588.025177 kJ/mol
# Density = 2.353498 g / cm^3
# Si number density = 23.588665 Si / 1000 Ang^3
#
#
#
# Elastic Constant Matrix: (Units=GPa)
#
#
# Indices 1 2 3 4 5 6 
#
# 1 66.5047 18.7709 5.0586 -11.5742 3.6287 8.0427
# 2 18.7709 131.5476 28.1976 -27.2012 1.5201 19.9943
# 3 5.0586 28.1976 57.9597 -9.4114 -10.8875 -0.1630
# 4 -11.5742 -27.2012 -9.4114 51.2170 -1.6054 4.9876
# 5 3.6287 1.5201 -10.8875 -1.6054 21.6055 4.9921
# 6 8.0427 19.9943 -0.1630 4.9876 4.9921 24.3413
#
#
#
# Elastic Compliance Matrix: (Units=1/GPa)
#
#
# Indices 1 2 3 4 5 6 
#
# 1 0.016676 -0.000545 -0.000901 0.003797 -0.001662 -0.005506
# 2 -0.000545 0.011564 -0.004630 0.006194 -0.000149 -0.010588
# 3 -0.000901 -0.004630 0.021965 0.001570 0.011290 0.001611
# 4 0.003797 0.006194 0.001570 0.025312 0.004472 -0.012436
# 5 -0.001662 -0.000149 0.011290 0.004472 0.055253 -0.011501
# 6 -0.005506 -0.010588 0.001611 -0.012436 -0.011501 0.056517
#
#
# Mechanical properties :
#
#
# Convention : Reuss Voigt Hill
#
# Bulk Modulus (GPa) = 26.28000 40.00737 33.14368
# Shear Modulus (GPa) = 23.57098 33.03175 28.30137
#
# Velocity S-wave (km/s) = 3.16452 3.74615 3.46755
# Velocity P-wave (km/s) = 4.95150 5.97568 5.48754
#
# Compressibility (1/GPa) = 0.03805175
#
# Stress axis : x y z
#
# Youngs Moduli (GPa) = 59.96513 86.47554 45.52685
#
# Poissons Ratio (x) = 0.04714 0.04104
# Poissons Ratio (y) = 0.03269 0.21080
# Poissons Ratio (z) = 0.05405 0.40040
#
# Static dielectric constant tensor:
#      x y z
#    x 1.937250 0.000030 -0.019630 
#    y 0.000030 1.857270 0.012780 
#    z -0.019630 0.012780 1.967340 
# 
# From -- ./inp_files/510674.got.cif
#   From: 2010.05.17/outbox.cif.g08.bks.cpg/sg2_256_cif.got.tgz:510674.got - 2010.06.03 11:33:40.
