data_PCOD9008186
_publ_section_title
;
Structure prediction by ZEFSAII (Michael W. Deem and Ramdas Pophale) SiO2 
 PCOD9008186
Probable space group: P -1
;
_chemical_formula_sum "Si O2"
_cell_formula_units_Z 16
_cell_length_a 16.720686
_cell_length_b 10.022863
_cell_length_c 7.823456
_cell_angle_alpha 60.467296
_cell_angle_beta 108.385995
_cell_angle_gamma 62.245563
_cell_volume 713.180844
_symmetry_space_group_name_H-M "P -1"
_symmetry_group_IT_number 2
_symmetry_cell_setting 'triclinic'
loop_
_space_group_symop_operation_xyz
x,y,z
-x,-y,-z
loop_
_atom_site_type_symbol
_atom_site_label
_atom_site_fract_x
_atom_site_fract_y
_atom_site_fract_z
Si Si1 0.043844 0.341459 0.389996
Si Si2 0.683861 0.413825 0.182871
Si Si3 0.522703 0.416179 0.842309
Si Si4 0.432415 0.808807 0.333204
Si Si5 0.625550 0.746532 0.666310
Si Si6 0.153485 0.498857 0.269027
Si Si7 0.956283 0.948160 0.655613
Si Si8 0.196573 0.314777 0.765409
O O1 0.054257 0.492871 0.212750
O O2 0.076053 0.164978 0.393342
O O3 0.139510 0.240772 0.677542
O O4 0.907786 0.494845 0.287140
O O5 0.566512 0.586333 0.125802
O O6 0.823796 0.190271 0.491488
O O7 0.633133 0.338986 0.081129
O O8 0.687419 0.557435 0.974530
O O9 0.430532 0.685760 0.559813
O O10 0.575666 0.271923 0.796978
O O11 0.568039 0.706106 0.513656
O O12 0.324982 0.085057 0.085740
O O13 0.733583 0.689747 0.671203
O O14 0.500000 0.000000 0.500000
O O15 0.207534 0.420284 0.549532
O O16 0.071720 0.755178 0.986329
O O17 0.000000 0.000000 0.500000
#
# Coordination Sequence:
#
# PCOD9008186 Si02
#       8
#     2   2   2   2   2   2   2   2
#     4   9  22  41  64  89 124 158 215 254 300 381
#     4  10  22  40  63  93 127 162 213 255 316 367
#     4   9  21  40  63  91 122 164 210 257 317 368
#     4  10  21  39  64  89 124 164 206 262 311 376
#     4  11  25  41  60  93 130 163 210 264 308 377
#     4  10  23  43  60  93 122 167 209 251 315 366
#     4  12  23  40  65  90 129 163 202 260 312 370
#     4   9  21  40  65  90 119 161 217 250 311 365
#
# _framework density 22.434704
#
# number of rings (size 3 to 8) (size 9 to 14) (size 15 to 20)
#    0.750    1.250    1.250    1.125    5.250    2.500 
#    2.250    0.625    0.000    0.000    0.000    0.000 
#    0.000    0.000    0.000    0.000    0.000    0.000 
#
# Total GULP energy -89264.272697 kJ/mol
# GULP energy per Si atom -5579.017044 kJ/mol
# Density = 2.238364 g / cm^3
# Si number density = 22.434704 Si / 1000 Ang^3
#
#
#
# Elastic Constant Matrix: (Units=GPa)
#
#
# Indices 1 2 3 4 5 6 
#
# 1 72.6601 11.5566 29.5430 6.5288 -17.2642 -29.2030
# 2 11.5566 38.6897 17.6892 -6.9954 -0.0749 -15.0312
# 3 29.5430 17.6892 124.0799 -16.3863 4.1467 -22.6904
# 4 6.5288 -6.9954 -16.3863 19.7034 -0.3014 3.6228
# 5 -17.2642 -0.0749 4.1467 -0.3014 25.8905 4.1781
# 6 -29.2030 -15.0312 -22.6904 3.6228 4.1781 40.1168
#
#
#
# Elastic Compliance Matrix: (Units=1/GPa)
#
#
# Indices 1 2 3 4 5 6 
#
# 1 0.029565 -0.002747 -0.006751 -0.019153 0.017896 0.016540
# 2 -0.002747 0.032381 -0.000898 0.009954 -0.002936 0.009032
# 3 -0.006751 -0.000898 0.011693 0.011359 -0.006406 0.001004
# 4 -0.019153 0.009954 0.011359 0.071542 -0.012282 -0.008970
# 5 0.017896 -0.002936 -0.006406 -0.012282 0.050766 0.004125
# 6 0.016540 0.009032 0.001004 -0.008970 0.004125 0.041300
#
#
# Mechanical properties :
#
#
# Convention : Reuss Voigt Hill
#
# Bulk Modulus (GPa) = 18.92231 39.22302 29.07267
# Shear Modulus (GPa) = 18.13871 28.91821 23.52846
#
# Velocity S-wave (km/s) = 2.84652 3.59415 3.24196
# Velocity P-wave (km/s) = 4.38819 5.89449 5.19622
#
# Compressibility (1/GPa) = 0.05284766
#
# Stress axis : x y z
#
# Youngs Moduli (GPa) = 33.82357 30.88245 85.52474
#
# Poissons Ratio (x) = 0.08484 0.57734
# Poissons Ratio (y) = 0.09292 0.07679
# Poissons Ratio (z) = 0.22833 0.02773
#
# Static dielectric constant tensor:
#      x y z
#    x 1.850310 0.025560 0.009990 
#    y 0.025560 1.831420 0.017150 
#    z 0.009990 0.017150 1.861100 
# 
# From -- ./inp_files/332901.got.cif
#   From: 2010.05.17/outbox.cif.g08.bks.cpg/sg2_167_cif.got.tgz:332901.got - 2010.06.03 11:33:40.
