data_PCOD9008565
_publ_section_title
;
Structure prediction by ZEFSAII (Michael W. Deem and Ramdas Pophale) SiO2 
 PCOD9008565
Probable space group: P -1
;
_chemical_formula_sum "Si O2"
_cell_formula_units_Z 14
_cell_length_a 9.087010
_cell_length_b 7.369536
_cell_length_c 12.372647
_cell_angle_alpha 76.590446
_cell_angle_beta 47.406613
_cell_angle_gamma 77.885269
_cell_volume 591.713636
_symmetry_space_group_name_H-M "P -1"
_symmetry_group_IT_number 2
_symmetry_cell_setting 'triclinic'
loop_
_space_group_symop_operation_xyz
x,y,z
-x,-y,-z
loop_
_atom_site_type_symbol
_atom_site_label
_atom_site_fract_x
_atom_site_fract_y
_atom_site_fract_z
Si Si1 0.460512 0.307946 0.106105
Si Si2 0.830451 0.806898 0.124282
Si Si3 0.284728 0.550682 0.652468
Si Si4 0.572229 0.160934 0.303660
Si Si5 0.007237 0.275461 0.387774
Si Si6 0.836696 0.066814 0.911881
Si Si7 0.875284 0.886210 0.436176
O O1 0.522293 0.291824 0.204941
O O2 0.228816 0.262291 0.226858
O O3 0.500000 0.500000 0.000000
O O4 0.613015 0.153247 0.996582
O O5 0.764869 0.608120 0.217120
O O6 0.050077 0.829988 0.061334
O O7 0.677733 0.965944 0.234467
O O8 0.832760 0.858014 0.989777
O O9 0.500000 0.500000 0.500000
O O10 0.293266 0.740733 0.690267
O O11 0.124675 0.567106 0.632705
O O12 0.356672 0.135631 0.468336
O O13 0.045579 0.274698 0.496812
O O14 0.889319 0.088695 0.456594
O O15 0.975570 0.104345 0.738036
#
# Coordination Sequence:
#
# PCOD9008565 Si02
#       7
#     2   2   2   2   2   2   2
#     4  10  22  41  61  89 130 170 210 260 318 376
#     4  10  22  41  63  98 132 161 211 264 317 376
#     4  12  24  39  68 101 126 164 216 262 313 379
#     4  10  23  43  67  93 129 170 207 264 322 369
#     4  10  23  40  63  94 128 168 211 261 317 375
#     4  10  21  39  65  90 127 171 208 262 317 373
#     4  10  21  42  66  91 126 168 214 260 316 377
#
# _framework density 23.660094000000001
#
# number of rings (size 3 to 8) (size 9 to 14) (size 15 to 20)
#    0.000    1.714    0.000    3.429    0.000    5.714 
#    0.000   11.429    0.000    8.571    0.000    0.000 
#    0.000    0.000    0.000    0.000    0.000    0.000 
#
# Total GULP energy -78337.846608 kJ/mol
# GULP energy per Si atom -5595.560472 kJ/mol
# Density = 2.360624 g / cm^3
# Si number density = 23.660094 Si / 1000 Ang^3
#
#
#
# Elastic Constant Matrix: (Units=GPa)
#
#
# Indices 1 2 3 4 5 6 
#
# 1 108.7718 40.2474 58.8793 2.2969 -3.2002 -28.3996
# 2 40.2474 65.1713 41.3643 -18.9314 2.8067 -20.6770
# 3 58.8793 41.3643 184.9964 -8.1329 6.4837 -34.0850
# 4 2.2969 -18.9314 -8.1329 45.2476 -6.5680 -0.4389
# 5 -3.2002 2.8067 6.4837 -6.5680 39.9298 1.9390
# 6 -28.3996 -20.6770 -34.0850 -0.4389 1.9390 36.2686
#
#
#
# Elastic Compliance Matrix: (Units=1/GPa)
#
#
# Indices 1 2 3 4 5 6 
#
# 1 0.014491 -0.007060 -0.002317 -0.003890 0.001149 0.005036
# 2 -0.007060 0.026678 -0.001674 0.011194 -0.000730 0.008281
# 3 -0.002317 -0.001674 0.007372 0.000584 -0.001375 0.004240
# 4 -0.003890 0.011194 0.000584 0.027582 0.003147 0.004049
# 5 0.001149 -0.000730 -0.001375 0.003147 0.026033 -0.002162
# 6 0.005036 0.008281 0.004240 0.004049 -0.002162 0.040386
#
#
# Mechanical properties :
#
#
# Convention : Reuss Voigt Hill
#
# Bulk Modulus (GPa) = 37.82476 71.10240 54.46358
# Shear Modulus (GPa) = 28.82525 38.85243 33.83884
#
# Velocity S-wave (km/s) = 3.49421 4.05669 3.78591
# Velocity P-wave (km/s) = 5.68338 7.21520 6.49461
#
# Compressibility (1/GPa) = 0.02643771
#
# Stress axis : x y z
#
# Youngs Moduli (GPa) = 69.00832 37.48453 135.64081
#
# Poissons Ratio (x) = 0.26466 0.31426
# Poissons Ratio (y) = 0.48723 0.22711
# Poissons Ratio (z) = 0.15988 0.06276
#
# Static dielectric constant tensor:
#      x y z
#    x 1.926220 0.001750 0.046830 
#    y 0.001750 1.923140 0.008350 
#    z 0.046830 0.008350 1.881920 
# 
# From -- ./inp_files/494570.got.cif
#   From: 2010.05.17/outbox.cif.g08.bks.cpg/sg2_248_cif.got.tgz:494570.got - 2010.06.03 11:33:40.
