data_PCOD9008681
_publ_section_title
;
Structure prediction by ZEFSAII (Michael W. Deem and Ramdas Pophale) SiO2 
 PCOD9008681
Probable space group: P -1
;
_chemical_formula_sum "Si O2"
_cell_formula_units_Z 16
_cell_length_a 10.595493
_cell_length_b 13.110440
_cell_length_c 8.492124
_cell_angle_alpha 76.431767
_cell_angle_beta 123.188313
_cell_angle_gamma 129.904651
_cell_volume 744.726524
_symmetry_space_group_name_H-M "P -1"
_symmetry_group_IT_number 2
_symmetry_cell_setting 'triclinic'
loop_
_space_group_symop_operation_xyz
x,y,z
-x,-y,-z
loop_
_atom_site_type_symbol
_atom_site_label
_atom_site_fract_x
_atom_site_fract_y
_atom_site_fract_z
Si Si1 0.397370 0.269846 0.867825
Si Si2 0.149423 0.626087 0.224880
Si Si3 0.358206 0.514531 0.306676
Si Si4 0.310137 0.800059 0.553567
Si Si5 0.231703 0.542407 0.753284
Si Si6 0.977801 0.267110 0.133292
Si Si7 0.060523 0.272664 0.558704
Si Si8 0.612249 0.975080 0.958489
O O1 0.511838 0.356709 0.760745
O O2 0.189270 0.232519 0.719972
O O3 0.548417 0.376762 0.064970
O O4 0.383430 0.139757 0.926357
O O5 0.233044 0.546158 0.303325
O O6 0.301669 0.762797 0.379913
O O7 0.940855 0.536184 0.205250
O O8 0.121858 0.668327 0.020252
O O9 0.500000 0.500000 0.500000
O O10 0.192811 0.368250 0.169039
O O11 0.233487 0.659246 0.637667
O O12 0.498666 0.917107 0.735937
O O13 0.145745 0.814276 0.464477
O O14 0.179015 0.427359 0.639051
O O15 0.014864 0.262541 0.345421
O O16 0.828080 0.113499 0.032718
O O17 0.500000 0.000000 0.000000
#
# Coordination Sequence:
#
# PCOD9008681 Si02
#       8
#     2   2   2   2   2   2   2   2
#     4  11  24  40  65  97 128 170 209 260 324 374
#     4  11  23  39  66  92 127 168 213 263 322 366
#     4  12  24  39  63  99 131 162 208 271 323 369
#     4  10  22  41  64  93 126 168 215 260 309 381
#     4  10  21  39  65  94 127 163 213 264 314 379
#     4  12  23  40  65  92 130 163 215 256 314 382
#     4  11  21  39  64  99 126 160 212 272 316 366
#     4  11  24  43  64  93 126 173 217 256 307 390
#
# _framework density 21.484394999999999
#
# number of rings (size 3 to 8) (size 9 to 14) (size 15 to 20)
#    0.000    1.000    3.750    4.500    3.500    1.000 
#    0.000    0.000    0.000    3.750    0.000    0.000 
#    0.000    0.000    0.000    0.000    0.000    0.000 
#
# Total GULP energy -89343.881948 kJ/mol
# GULP energy per Si atom -5583.992622 kJ/mol
# Density = 2.143550 g / cm^3
# Si number density = 21.484395 Si / 1000 Ang^3
#
#
#
# Elastic Constant Matrix: (Units=GPa)
#
#
# Indices 1 2 3 4 5 6 
#
# 1 49.7175 32.2032 55.9455 5.3869 25.5517 -9.2267
# 2 32.2032 131.3634 62.0930 19.9095 23.3349 0.5552
# 3 55.9455 62.0930 174.2259 14.8193 31.1993 -20.5612
# 4 5.3869 19.9095 14.8193 34.1873 -1.7024 -1.4625
# 5 25.5517 23.3349 31.1993 -1.7024 33.7884 1.2541
# 6 -9.2267 0.5552 -20.5612 -1.4625 1.2541 19.7360
#
#
#
# Elastic Compliance Matrix: (Units=1/GPa)
#
#
# Indices 1 2 3 4 5 6 
#
# 1 0.048167 -0.002933 -0.006972 -0.003569 -0.028770 0.016902
# 2 -0.002933 0.010836 -0.002449 -0.005129 -0.003099 -0.004411
# 3 -0.006972 -0.002449 0.010482 -0.001839 -0.003096 0.007790
# 4 -0.003569 -0.005129 -0.001839 0.034015 0.009711 -0.001537
# 5 -0.028770 -0.003099 -0.003096 0.009711 0.057566 -0.019527
# 6 0.016902 -0.004411 0.007790 -0.001537 -0.019527 0.067937
#
#
# Mechanical properties :
#
#
# Convention : Reuss Voigt Hill
#
# Bulk Modulus (GPa) = 22.33270 72.86559 47.59915
# Shear Modulus (GPa) = 18.61254 31.21334 24.91294
#
# Velocity S-wave (km/s) = 2.94654 3.81575 3.40896
# Velocity P-wave (km/s) = 4.68973 7.30770 6.13987
#
# Compressibility (1/GPa) = 0.04477739
#
# Stress axis : x y z
#
# Youngs Moduli (GPa) = 20.76089 92.28760 95.40544
#
# Poissons Ratio (x) = 0.27064 0.66514
# Poissons Ratio (y) = 0.06088 0.23369
# Poissons Ratio (z) = 0.14474 0.22606
#
# Static dielectric constant tensor:
#      x y z
#    x 1.800110 0.022010 -0.012750 
#    y 0.022010 1.795570 0.010070 
#    z -0.012750 0.010070 1.856490 
# 
# From -- ./inp_files/262347.got.cif
#   From: 2010.05.17/outbox.cif.g08.bks.cpg/sg2_132_cif.got.tgz:262347.got - 2010.06.03 11:33:40.
