data_PCOD9008208
_publ_section_title
;
Structure prediction by ZEFSAII (Michael W. Deem and Ramdas Pophale) SiO2 
 PCOD9008208
Probable space group: P -1
;
_chemical_formula_sum "Si O2"
_cell_formula_units_Z 16
_cell_length_a 7.593313
_cell_length_b 15.170534
_cell_length_c 9.295016
_cell_angle_alpha 141.281112
_cell_angle_beta 97.702432
_cell_angle_gamma 87.234347
_cell_volume 660.956968
_symmetry_space_group_name_H-M "P -1"
_symmetry_group_IT_number 2
_symmetry_cell_setting 'triclinic'
loop_
_space_group_symop_operation_xyz
x,y,z
-x,-y,-z
loop_
_atom_site_type_symbol
_atom_site_label
_atom_site_fract_x
_atom_site_fract_y
_atom_site_fract_z
Si Si1 0.723451 0.606790 0.853761
Si Si2 0.584810 0.383793 0.766213
Si Si3 0.147129 0.650782 0.005963
Si Si4 0.558904 0.083880 0.320396
Si Si5 0.082874 0.937054 0.219773
Si Si6 0.262402 0.855052 0.872052
Si Si7 0.212711 0.537354 0.585156
Si Si8 0.724325 0.903554 0.320385
O O1 0.636236 0.464409 0.729630
O O2 0.707303 0.585893 0.654017
O O3 0.642469 0.744118 0.083093
O O4 0.932583 0.616437 0.936481
O O5 0.762140 0.350860 0.832400
O O6 0.479889 0.233324 0.529043
O O7 0.500000 0.500000 0.000000
O O8 0.171613 0.804691 0.132104
O O9 0.238676 0.550019 0.774711
O O10 0.717267 0.123738 0.270687
O O11 0.608078 0.023606 0.403804
O O12 0.431290 0.955055 0.077829
O O13 0.885145 0.920465 0.241036
O O14 0.186592 0.070173 0.480960
O O15 0.103536 0.916464 0.026050
O O16 0.259633 0.691227 0.712354
O O17 0.000000 0.500000 0.500000
#
# Coordination Sequence:
#
# PCOD9008208 Si02
#       8
#     2   2   2   2   2   2   2   2
#     4  10  21  39  64  90 123 157 205 259 313 359
#     4  12  25  41  59  92 125 164 207 255 308 371
#     4   9  19  40  65  88 117 159 206 258 309 363
#     4  11  24  43  62  88 132 168 204 250 316 372
#     4   9  19  38  66  91 121 153 212 254 305 364
#     4  10  22  41  64  88 126 173 204 248 309 376
#     4   9  18  39  66  92 120 158 208 256 306 362
#     4  10  21  39  64  97 119 160 206 260 305 370
#
# _framework density 24.207325000000001
#
# number of rings (size 3 to 8) (size 9 to 14) (size 15 to 20)
#    0.000    2.000    2.500    1.125    1.750    3.000 
#    4.500    1.250    0.000    0.000    0.000    0.000 
#    0.000    0.000    0.000    0.000    0.000    0.000 
#
# Total GULP energy -89320.137203 kJ/mol
# GULP energy per Si atom -5582.508575 kJ/mol
# Density = 2.415223 g / cm^3
# Si number density = 24.207325 Si / 1000 Ang^3
#
#
#
# Elastic Constant Matrix: (Units=GPa)
#
#
# Indices 1 2 3 4 5 6 
#
# 1 39.9899 19.9256 6.6618 5.3679 4.4144 14.7858
# 2 19.9256 65.5132 16.3137 16.5581 0.7976 12.9781
# 3 6.6618 16.3137 107.7053 23.7810 -8.0985 11.6436
# 4 5.3679 16.5581 23.7810 46.0387 7.4401 -0.7029
# 5 4.4144 0.7976 -8.0985 7.4401 34.5912 -2.3402
# 6 14.7858 12.9781 11.6436 -0.7029 -2.3402 29.9842
#
#
#
# Elastic Compliance Matrix: (Units=1/GPa)
#
#
# Indices 1 2 3 4 5 6 
#
# 1 0.034675 -0.007480 0.000393 -0.000980 -0.004925 -0.014422
# 2 -0.007480 0.020256 -0.000549 -0.006433 0.001411 -0.004907
# 3 0.000393 -0.000549 0.011519 -0.006472 0.003761 -0.004288
# 4 -0.000980 -0.006433 -0.006472 0.028716 -0.007019 0.005906
# 5 -0.004925 0.001411 0.003761 -0.007019 0.032078 0.002697
# 6 -0.014422 -0.004907 -0.004288 0.005906 0.002697 0.044600
#
#
# Mechanical properties :
#
#
# Convention : Reuss Voigt Hill
#
# Bulk Modulus (GPa) = 19.53880 33.22340 26.38110
# Shear Modulus (GPa) = 24.48891 33.47664 28.98277
#
# Velocity S-wave (km/s) = 3.18407 3.72279 3.46392
# Velocity P-wave (km/s) = 4.64830 5.67743 5.18844
#
# Compressibility (1/GPa) = 0.05118022
#
# Stress axis : x y z
#
# Youngs Moduli (GPa) = 28.83910 49.36729 86.81599
#
# Poissons Ratio (x) = 0.36925 -0.03415
# Poissons Ratio (y) = 0.21571 0.04763
# Poissons Ratio (z) = -0.01134 0.02709
#
# Static dielectric constant tensor:
#      x y z
#    x 2.003530 0.028910 -0.053890 
#    y 0.028910 1.890040 -0.003180 
#    z -0.053890 -0.003180 1.973870 
# 
# From -- ./inp_files/175158.got.cif
#   From: 2010.05.17/outbox.cif.g08.bks.cpg/sg2_88_cif.got.tgz:175158.got - 2010.06.03 11:33:40.
