data_PCOD9008654
_publ_section_title
;
Structure prediction by ZEFSAII (Michael W. Deem and Ramdas Pophale) SiO2 
 PCOD9008654
Probable space group: P -1
;
_chemical_formula_sum "Si O2"
_cell_formula_units_Z 12
_cell_length_a 7.223795
_cell_length_b 6.445062
_cell_length_c 13.326021
_cell_angle_alpha 74.467817
_cell_angle_beta 101.605363
_cell_angle_gamma 54.095489
_cell_volume 430.176123
_symmetry_space_group_name_H-M "P -1"
_symmetry_group_IT_number 2
_symmetry_cell_setting 'triclinic'
loop_
_space_group_symop_operation_xyz
x,y,z
-x,-y,-z
loop_
_atom_site_type_symbol
_atom_site_label
_atom_site_fract_x
_atom_site_fract_y
_atom_site_fract_z
Si Si1 0.249489 0.452212 0.930768
Si Si2 0.140775 0.880832 0.262743
Si Si3 0.811914 0.730147 0.241632
Si Si4 0.436148 0.188108 0.606206
Si Si5 0.938843 0.798526 0.526793
Si Si6 0.266245 0.668545 0.092270
O O1 0.221891 0.263690 0.882280
O O2 0.500896 0.373528 0.922457
O O3 0.014556 0.793040 0.836394
O O4 0.266354 0.450142 0.053470
O O5 0.925217 0.871608 0.266313
O O6 0.291090 0.646541 0.217745
O O7 0.569543 0.868098 0.268336
O O8 0.648631 0.963647 0.440276
O O9 0.999159 0.389588 0.341687
O O10 0.170651 0.523828 0.518260
O O11 0.666913 0.176676 0.624957
O O12 0.000000 0.000000 0.500000
O O13 0.000000 0.000000 0.000000
#
# Coordination Sequence:
#
# PCOD9008654 Si02
#       6
#     2   2   2   2   2   2
#     4  10  21  39  65  93 126 169 209 248 317 378
#     4  11  22  40  64  92 131 164 209 262 310 370
#     4  10  22  38  63  95 122 166 215 257 309 375
#     4   9  21  40  60  90 129 163 205 271 307 359
#     4   9  20  40  65  87 128 167 207 263 313 369
#     4   9  19  41  65  92 131 162 205 260 306 372
#
# _framework density 27.895551000000001
#
# number of rings (size 3 to 8) (size 9 to 14) (size 15 to 20)
#    1.000    1.333    1.667    0.000    2.333    2.667 
#    3.000    9.167    0.000    0.000    0.000    0.000 
#    0.000    0.000    0.000    0.000    0.000    0.000 
#
# Total GULP energy -67033.314616 kJ/mol
# GULP energy per Si atom -5586.109551 kJ/mol
# Density = 2.783206 g / cm^3
# Si number density = 27.895551 Si / 1000 Ang^3
#
#
#
# Elastic Constant Matrix: (Units=GPa)
#
#
# Indices 1 2 3 4 5 6 
#
# 1 161.1147 38.0632 21.7115 5.6638 25.2440 24.1895
# 2 38.0632 61.2289 43.2065 6.3912 12.2167 29.2369
# 3 21.7115 43.2065 93.9974 13.3417 15.0836 14.7156
# 4 5.6638 6.3912 13.3417 50.7800 4.2693 4.1018
# 5 25.2440 12.2167 15.0836 4.2693 46.6578 13.1137
# 6 24.1895 29.2369 14.7156 4.1018 13.1137 55.0238
#
#
#
# Elastic Compliance Matrix: (Units=1/GPa)
#
#
# Indices 1 2 3 4 5 6 
#
# 1 0.007735 -0.004612 0.000938 -0.000230 -0.003137 -0.000436
# 2 -0.004612 0.034227 -0.012913 0.000543 0.001330 -0.013063
# 3 0.000938 -0.012913 0.016809 -0.002869 -0.003116 0.002910
# 4 -0.000230 0.000543 -0.002869 0.020529 -0.000752 -0.000771
# 5 -0.003137 0.001330 -0.003116 -0.000752 0.025100 -0.004420
# 6 -0.000436 -0.013063 0.002910 -0.000771 -0.004420 0.025639
#
#
# Mechanical properties :
#
#
# Convention : Reuss Voigt Hill
#
# Bulk Modulus (GPa) = 39.06801 58.03369 48.55085
# Shear Modulus (GPa) = 29.11278 44.71630 36.91454
#
# Velocity S-wave (km/s) = 3.23404 4.00808 3.64168
# Velocity P-wave (km/s) = 5.28969 6.50144 5.92662
#
# Compressibility (1/GPa) = 0.02559639
#
# Stress axis : x y z
#
# Youngs Moduli (GPa) = 129.28174 29.21699 59.49197
#
# Poissons Ratio (x) = 0.13475 -0.05578
# Poissons Ratio (y) = 0.59627 0.76819
# Poissons Ratio (z) = -0.12121 0.37727
#
# Static dielectric constant tensor:
#      x y z
#    x 2.184870 -0.024510 0.000260 
#    y -0.024510 2.254810 0.123320 
#    z 0.000260 0.123320 2.243990 
# 
# From -- ./inp_files/121989.got.cif
#   From: 2010.05.17/outbox.cif.g08.bks.cpg/sg2_61_cif.got.tgz:121989.got - 2010.06.03 11:33:40.
