data_PCOD9008388
_publ_section_title
;
Structure prediction by ZEFSAII (Michael W. Deem and Ramdas Pophale) SiO2 
 PCOD9008388
Probable space group: P -1
;
_chemical_formula_sum "Si O2"
_cell_formula_units_Z 16
_cell_length_a 5.081102
_cell_length_b 8.760440
_cell_length_c 18.099758
_cell_angle_alpha 75.686500
_cell_angle_beta 81.734609
_cell_angle_gamma 56.157630
_cell_volume 648.375650
_symmetry_space_group_name_H-M "P -1"
_symmetry_group_IT_number 2
_symmetry_cell_setting 'triclinic'
loop_
_space_group_symop_operation_xyz
x,y,z
-x,-y,-z
loop_
_atom_site_type_symbol
_atom_site_label
_atom_site_fract_x
_atom_site_fract_y
_atom_site_fract_z
Si Si1 0.508355 0.553109 0.720152
Si Si2 0.759881 0.738627 0.061718
Si Si3 0.880178 0.712905 0.892751
Si Si4 0.070198 0.239388 0.478274
Si Si5 0.833158 0.573290 0.352595
Si Si6 0.171901 0.783542 0.149963
Si Si7 0.356868 0.885745 0.423209
Si Si8 0.290850 0.859382 0.797674
O O1 0.273458 0.498790 0.703256
O O2 0.661688 0.427193 0.801984
O O3 0.345937 0.767708 0.725804
O O4 0.808724 0.483547 0.663694
O O5 0.437891 0.818924 0.109782
O O6 0.947069 0.512069 0.088426
O O7 0.963280 0.806255 0.085297
O O8 0.721749 0.779500 0.971630
O O9 0.620574 0.802261 0.828163
O O10 0.135111 0.767859 0.862902
O O11 0.386885 0.196279 0.510419
O O12 0.844356 0.451414 0.436307
O O13 0.890084 0.175456 0.546341
O O14 0.171933 0.107951 0.416906
O O15 0.567890 0.789207 0.354083
O O16 0.956985 0.920400 0.208014
#
# Coordination Sequence:
#
# PCOD9008388 Si02
#       8
#     2   2   2   2   2   2   2   2
#     4  12  26  43  59  88 126 168 215 256 295 362
#     4  11  22  41  68  94 124 158 203 268 331 385
#     4  11  22  41  68  94 124 158 203 268 331 385
#     4  10  21  39  64  95 127 155 195 253 310 360
#     4  12  24  39  66  88 123 168 209 248 297 370
#     4  12  25  43  65  89 126 168 210 262 319 376
#     4  10  21  39  64  95 127 155 195 253 310 360
#     4  12  25  43  65  89 126 168 210 262 319 376
#
# _framework density 24.677053999999998
#
# number of rings (size 3 to 8) (size 9 to 14) (size 15 to 20)
#    0.000    0.750    2.500    5.250    0.000    7.000 
#    0.000    0.000    0.000    0.000    0.000    0.000 
#    0.000    0.000    0.000    0.000    0.000    0.000 
#
# Total GULP energy -89667.998733 kJ/mol
# GULP energy per Si atom -5604.249921 kJ/mol
# Density = 2.462089 g / cm^3
# Si number density = 24.677054 Si / 1000 Ang^3
#
#
#
# Elastic Constant Matrix: (Units=GPa)
#
#
# Indices 1 2 3 4 5 6 
#
# 1 63.9855 -4.3002 1.6791 -7.4679 2.6848 -7.4695
# 2 -4.3002 98.7616 7.7970 29.0329 -3.0399 -9.1855
# 3 1.6791 7.7970 37.6582 15.3424 0.5966 -0.7164
# 4 -7.4679 29.0329 15.3424 35.0526 -0.6358 -4.6505
# 5 2.6848 -3.0399 0.5966 -0.6358 39.0899 7.1035
# 6 -7.4695 -9.1855 -0.7164 -4.6505 7.1035 23.6901
#
#
#
# Elastic Compliance Matrix: (Units=1/GPa)
#
#
# Indices 1 2 3 4 5 6 
#
# 1 0.017349 -0.000203 -0.003047 0.006112 -0.002372 0.007210
# 2 -0.000203 0.013743 0.002081 -0.011949 0.000333 0.002882
# 3 -0.003047 0.002081 0.033242 -0.017261 0.000047 -0.002551
# 4 0.006112 -0.011949 -0.017261 0.048141 -0.001516 0.006677
# 5 -0.002372 0.000333 0.000047 -0.001516 0.027405 -0.009132
# 6 0.007210 0.002882 -0.002551 0.006677 -0.009132 0.049575
#
#
# Mechanical properties :
#
#
# Convention : Reuss Voigt Hill
#
# Bulk Modulus (GPa) = 16.12959 23.41745 19.77352
# Shear Modulus (GPa) = 23.53402 32.58181 28.05791
#
# Velocity S-wave (km/s) = 3.09152 3.63757 3.37561
# Velocity P-wave (km/s) = 4.39247 5.21083 4.81905
#
# Compressibility (1/GPa) = 0.06199786
#
# Stress axis : x y z
#
# Youngs Moduli (GPa) = 57.63898 72.76362 30.08203
#
# Poissons Ratio (x) = 0.01478 0.09165
# Poissons Ratio (y) = 0.01171 -0.06261
# Poissons Ratio (z) = 0.17561 -0.15144
#
# Static dielectric constant tensor:
#      x y z
#    x 1.875170 0.009120 -0.007450 
#    y 0.009120 1.953100 0.042770 
#    z -0.007450 0.042770 1.925590 
# 
# From -- ./inp_files/548030.got.cif
#   From: 2010.05.17/outbox.cif.g08.bks.cpg/sg2_275_cif.got.tgz:548030.got - 2010.06.03 11:33:40.
