data_PCOD9008299
_publ_section_title
;
Structure prediction by ZEFSAII (Michael W. Deem and Ramdas Pophale) SiO2 
 PCOD9008299
Probable space group: P -1
;
_chemical_formula_sum "Si O2"
_cell_formula_units_Z 16
_cell_length_a 14.706029
_cell_length_b 15.998020
_cell_length_c 10.165532
_cell_angle_alpha 77.420790
_cell_angle_beta 97.233275
_cell_angle_gamma 27.631957
_cell_volume 768.405204
_symmetry_space_group_name_H-M "P -1"
_symmetry_group_IT_number 2
_symmetry_cell_setting 'triclinic'
loop_
_space_group_symop_operation_xyz
x,y,z
-x,-y,-z
loop_
_atom_site_type_symbol
_atom_site_label
_atom_site_fract_x
_atom_site_fract_y
_atom_site_fract_z
Si Si1 0.634931 0.525386 0.773520
Si Si2 0.198748 0.948394 0.034335
Si Si3 0.799988 0.548477 0.941968
Si Si4 0.265987 0.777852 0.841771
Si Si5 0.587047 0.065597 0.030861
Si Si6 0.759903 0.746930 0.279708
Si Si7 0.314104 0.169993 0.278374
Si Si8 0.642880 0.280665 0.594678
O O1 0.771345 0.489443 0.871589
O O2 0.378614 0.727311 0.751206
O O3 0.526439 0.627505 0.570556
O O4 0.873686 0.242360 0.909504
O O5 0.302177 0.953828 0.027383
O O6 0.345938 0.771858 0.242264
O O7 0.248610 0.853473 0.941199
O O8 0.805938 0.628256 0.825536
O O9 0.536551 0.787859 0.907432
O O10 0.067408 0.319753 0.163288
O O11 0.500000 0.500000 0.000000
O O12 0.956931 0.013946 0.691688
O O13 0.342586 0.231314 0.853019
O O14 0.804335 0.799219 0.198910
O O15 0.000000 0.500000 0.500000
O O16 0.504567 0.988024 0.248414
O O17 0.500000 0.000000 0.500000
O O18 0.500000 0.500000 0.500000
#
# Coordination Sequence:
#
# PCOD9008299 Si02
#       8
#     2   2   2   2   2   2   2   2
#     4  12  25  44  72 103 139 182 235 296 351 427
#     4  12  25  45  71 103 139 182 237 293 352 432
#     4  10  22  41  63  97 132 180 225 281 344 404
#     4  12  24  49  74  98 140 187 231 294 371 422
#     4  10  22  41  64  95 134 179 227 278 346 411
#     4  10  21  39  64  93 134 179 220 279 344 408
#     4  10  21  39  64  92 136 177 224 277 338 413
#     4  12  26  47  72 104 140 184 240 297 364 426
#
# _framework density 20.822348000000002
#
# number of rings (size 3 to 8) (size 9 to 14) (size 15 to 20)
#    0.000    1.000    3.750    3.000    0.000    6.000 
#    0.000    2.500    0.000    0.000    0.000    0.000 
#    0.000    0.000    0.000    0.000    0.000    0.000 
#
# Total GULP energy -89443.457637 kJ/mol
# GULP energy per Si atom -5590.216102 kJ/mol
# Density = 2.077496 g / cm^3
# Si number density = 20.822348 Si / 1000 Ang^3
#
#
#
# Elastic Constant Matrix: (Units=GPa)
#
#
# Indices 1 2 3 4 5 6 
#
# 1 90.6657 23.5850 39.9112 0.6378 -4.9143 6.1947
# 2 23.5850 118.9949 25.6453 4.1839 1.5298 11.9373
# 3 39.9112 25.6453 148.4309 4.9502 -1.3360 16.2610
# 4 0.6378 4.1839 4.9502 41.5413 1.4412 3.5193
# 5 -4.9143 1.5298 -1.3360 1.4412 30.6510 8.4889
# 6 6.1947 11.9373 16.2610 3.5193 8.4889 32.7229
#
#
#
# Elastic Compliance Matrix: (Units=1/GPa)
#
#
# Indices 1 2 3 4 5 6 
#
# 1 0.013055 -0.001877 -0.003080 0.000352 0.002281 -0.000886
# 2 -0.001877 0.009222 -0.000792 -0.000589 -0.000066 -0.002535
# 3 -0.003080 -0.000792 0.008091 -0.000586 0.000841 -0.003304
# 4 0.000352 -0.000589 -0.000586 0.024388 -0.000519 -0.002049
# 5 0.002281 -0.000066 0.000841 -0.000519 0.035844 -0.010069
# 6 -0.000886 -0.002535 -0.003304 -0.002049 -0.010069 0.036126
#
#
# Mechanical properties :
#
#
# Convention : Reuss Voigt Hill
#
# Bulk Modulus (GPa) = 52.99132 59.59717 56.29424
# Shear Modulus (GPa) = 34.59847 38.91304 36.75575
#
# Velocity S-wave (km/s) = 4.08070 4.32766 4.20599
# Velocity P-wave (km/s) = 6.90705 7.32499 7.11908
#
# Compressibility (1/GPa) = 0.01887102
#
# Stress axis : x y z
#
# Youngs Moduli (GPa) = 76.59683 108.43390 123.58910
#
# Poissons Ratio (x) = 0.20348 0.38070
# Poissons Ratio (y) = 0.14374 0.09789
# Poissons Ratio (z) = 0.23594 0.08588
#
# Static dielectric constant tensor:
#      x y z
#    x 1.762580 -0.013990 -0.006350 
#    y -0.013990 1.762720 -0.012230 
#    z -0.006350 -0.012230 1.727620 
# 
# From -- ./inp_files/315111.got.cif
#   From: 2010.05.17/outbox.cif.g08.bks.cpg/sg2_158_cif.got.tgz:315111.got - 2010.06.03 11:33:40.
