data_PCOD9008754
_publ_section_title
;
Structure prediction by ZEFSAII (Michael W. Deem and Ramdas Pophale) SiO2 
 PCOD9008754
Probable space group: P -1
;
_chemical_formula_sum "Si O2"
_cell_formula_units_Z 12
_cell_length_a 19.070505
_cell_length_b 7.253230
_cell_length_c 12.587158
_cell_angle_alpha 128.692493
_cell_angle_beta 25.006412
_cell_angle_gamma 136.702966
_cell_volume 501.154646
_symmetry_space_group_name_H-M "P -1"
_symmetry_group_IT_number 2
_symmetry_cell_setting 'triclinic'
loop_
_space_group_symop_operation_xyz
x,y,z
-x,-y,-z
loop_
_atom_site_type_symbol
_atom_site_label
_atom_site_fract_x
_atom_site_fract_y
_atom_site_fract_z
Si Si1 0.299158 0.206211 0.738322
Si Si2 0.472140 0.988753 0.789051
Si Si3 0.093048 0.233813 0.840435
Si Si4 0.796737 0.180173 0.565573
Si Si5 0.080330 0.803361 0.356969
Si Si6 0.434416 0.703942 0.431385
O O1 0.184584 0.307301 0.858327
O O2 0.413462 0.362983 0.742613
O O3 0.448420 0.183911 0.446099
O O4 0.133309 0.904773 0.890623
O O5 0.584700 0.072711 0.775214
O O6 0.534812 0.246638 0.717766
O O7 0.249080 0.846727 0.061820
O O8 0.224348 0.482687 0.674571
O O9 0.124042 0.989931 0.667966
O O10 0.827649 0.135534 0.629476
O O11 0.916477 0.493364 0.480408
O O12 0.000000 0.000000 0.500000
O O13 0.500000 0.000000 0.500000
#
# Coordination Sequence:
#
# PCOD9008754 Si02
#       6
#     2   2   2   2   2   2
#     4   9  21  39  63  96 133 174 210 266 326 393
#     4  10  23  42  66  99 132 172 218 273 327 393
#     4  10  21  39  65  96 134 174 214 263 330 394
#     4  10  25  46  68  97 128 177 219 276 332 386
#     4  11  26  47  69  94 129 173 228 281 326 386
#     4  10  22  36  61  98 133 171 210 262 321 393
#
# _framework density 23.944706
#
# number of rings (size 3 to 8) (size 9 to 14) (size 15 to 20)
#    0.000    2.000    0.000    1.000    4.667   14.000 
#    6.000    0.000    0.000    0.000    0.000    0.000 
#    0.000    0.000    0.000    0.000    0.000    0.000 
#
# Total GULP energy -67061.534666 kJ/mol
# GULP energy per Si atom -5588.461222 kJ/mol
# Density = 2.389021 g / cm^3
# Si number density = 23.944706 Si / 1000 Ang^3
#
#
#
# Elastic Constant Matrix: (Units=GPa)
#
#
# Indices 1 2 3 4 5 6 
#
# 1 124.8867 47.7950 26.5431 -6.6284 -2.2701 -19.8965
# 2 47.7950 109.6335 46.6314 -10.0640 1.3156 -18.7924
# 3 26.5431 46.6314 143.5346 -20.4785 -8.0178 -8.7690
# 4 -6.6284 -10.0640 -20.4785 31.5978 -5.6973 2.1840
# 5 -2.2701 1.3156 -8.0178 -5.6973 33.1396 -9.0500
# 6 -19.8965 -18.7924 -8.7690 2.1840 -9.0500 35.0154
#
#
#
# Elastic Compliance Matrix: (Units=1/GPa)
#
#
# Indices 1 2 3 4 5 6 
#
# 1 0.010189 -0.003548 -0.000212 0.000956 0.002133 0.004323
# 2 -0.003548 0.012763 -0.003127 0.000975 -0.000268 0.003920
# 3 -0.000212 -0.003127 0.009050 0.005386 0.003509 0.001039
# 4 0.000956 0.000975 0.005386 0.036991 0.008305 0.002254
# 5 0.002133 -0.000268 0.003509 0.008305 0.035505 0.010605
# 6 0.004323 0.003920 0.001039 0.002254 0.010605 0.035980
#
#
# Mechanical properties :
#
#
# Convention : Reuss Voigt Hill
#
# Bulk Modulus (GPa) = 54.86158 68.88821 61.87489
# Shear Modulus (GPa) = 31.18644 37.08959 34.13802
#
# Velocity S-wave (km/s) = 3.61284 3.93996 3.77994
# Velocity P-wave (km/s) = 6.35335 7.03775 6.70429
#
# Compressibility (1/GPa) = 0.01822769
#
# Stress axis : x y z
#
# Youngs Moduli (GPa) = 98.14937 78.35280 110.50055
#
# Poissons Ratio (x) = 0.27803 0.02339
# Poissons Ratio (y) = 0.34828 0.34548
# Poissons Ratio (z) = 0.02078 0.24497
#
# Static dielectric constant tensor:
#      x y z
#    x 2.020830 -0.067140 -0.030690 
#    y -0.067140 1.985290 0.003230 
#    z -0.030690 0.003230 1.900530 
# 
# From -- ./inp_files/542437.got.cif
#   From: 2010.05.17/outbox.cif.g08.bks.cpg/sg2_272_cif.got.tgz:542437.got - 2010.06.03 11:33:40.
