data_PCOD9008320
_publ_section_title
;
Structure prediction by ZEFSAII (Michael W. Deem and Ramdas Pophale) SiO2 
 PCOD9008320
Probable space group: P -1
;
_chemical_formula_sum "Si O2"
_cell_formula_units_Z 16
_cell_length_a 17.485394
_cell_length_b 17.158638
_cell_length_c 10.602753
_cell_angle_alpha 159.599255
_cell_angle_beta 41.115748
_cell_angle_gamma 139.944538
_cell_volume 704.362763
_symmetry_space_group_name_H-M "P -1"
_symmetry_group_IT_number 2
_symmetry_cell_setting 'triclinic'
loop_
_space_group_symop_operation_xyz
x,y,z
-x,-y,-z
loop_
_atom_site_type_symbol
_atom_site_label
_atom_site_fract_x
_atom_site_fract_y
_atom_site_fract_z
Si Si1 0.874781 0.801786 0.011837
Si Si2 0.121505 0.203549 0.499899
Si Si3 0.376804 0.406863 0.935614
Si Si4 0.115874 0.905898 0.296425
Si Si5 0.633485 0.086137 0.914082
Si Si6 0.130068 0.930899 0.832916
Si Si7 0.372482 0.554545 0.724489
Si Si8 0.376417 0.803322 0.341668
O O1 0.751514 0.600238 0.850968
O O2 0.865521 0.984657 0.189340
O O3 0.881649 0.910005 0.310040
O O4 0.002282 0.746127 0.738708
O O5 0.253761 0.355723 0.596982
O O6 0.003791 0.292396 0.816345
O O7 0.103161 0.993636 0.304299
O O8 0.120954 0.134501 0.250196
O O9 0.361886 0.136323 0.514330
O O10 0.500000 0.500000 0.000000
O O11 0.384667 0.572779 0.056150
O O12 0.248047 0.868546 0.079795
O O13 0.638600 0.334321 0.226091
O O14 0.500000 0.000000 0.000000
O O15 0.251976 0.865972 0.623212
O O16 0.500000 0.500000 0.500000
O O17 0.368585 0.752751 0.127753
O O18 0.500000 0.000000 0.500000
#
# Coordination Sequence:
#
# PCOD9008320 Si02
#       8
#     2   2   2   2   2   2   2   2
#     4   9  19  39  63  88 125 165 203 250 307 369
#     4  10  21  39  64  93 125 161 204 255 308 365
#     4  11  23  40  60  85 120 160 203 250 304 364
#     4   9  19  39  63  88 125 165 203 250 307 369
#     4  11  23  40  60  85 120 160 203 250 304 364
#     4  10  21  39  64  93 125 161 204 255 308 365
#     4  12  24  40  63  91 124 162 208 258 310 368
#     4  12  24  40  63  91 124 162 208 258 310 368
#
# _framework density 22.715568000000001
#
# number of rings (size 3 to 8) (size 9 to 14) (size 15 to 20)
#    0.000    1.500    0.000    6.750    0.000    3.000 
#    0.000    1.250    0.000    0.000    0.000    0.000 
#    0.000    0.000    0.000    0.000    0.000    0.000 
#
# Total GULP energy -89177.694033 kJ/mol
# GULP energy per Si atom -5573.605877 kJ/mol
# Density = 2.266387 g / cm^3
# Si number density = 22.715568 Si / 1000 Ang^3
#
#
#
# Elastic Constant Matrix: (Units=GPa)
#
#
# Indices 1 2 3 4 5 6 
#
# 1 121.0963 44.0189 11.2471 -6.7415 -15.5011 22.9511
# 2 44.0189 147.5631 21.5225 -14.1322 -16.4775 44.4908
# 3 11.2471 21.5225 33.6789 -4.1341 -10.5255 9.0465
# 4 -6.7415 -14.1322 -4.1341 24.6517 -0.5344 -9.5272
# 5 -15.5011 -16.4775 -10.5255 -0.5344 33.3935 -3.8851
# 6 22.9511 44.4908 9.0465 -9.5272 -3.8851 63.9833
#
#
#
# Elastic Compliance Matrix: (Units=1/GPa)
#
#
# Indices 1 2 3 4 5 6 
#
# 1 0.009790 -0.001849 -0.000458 0.000906 0.003290 -0.001827
# 2 -0.001849 0.009900 -0.003214 0.002666 0.002449 -0.005221
# 3 -0.000458 -0.003214 0.035671 0.003622 0.009324 -0.001539
# 4 0.000906 0.002666 0.003622 0.044663 0.004082 0.004207
# 5 0.003290 0.002449 0.009324 0.004082 0.035519 -0.001437
# 6 -0.001827 -0.005221 -0.001539 0.004207 -0.001437 0.020671
#
#
# Mechanical properties :
#
#
# Convention : Reuss Voigt Hill
#
# Bulk Modulus (GPa) = 22.56347 50.65727 36.61037
# Shear Modulus (GPa) = 27.46816 39.44235 33.45526
#
# Velocity S-wave (km/s) = 3.48116 4.17148 3.84186
# Velocity P-wave (km/s) = 5.11005 6.74913 5.98596
#
# Compressibility (1/GPa) = 0.04431943
#
# Stress axis : x y z
#
# Youngs Moduli (GPa) = 102.14232 101.01132 28.03404
#
# Poissons Ratio (x) = 0.18675 0.01284
# Poissons Ratio (y) = 0.18884 0.09011
# Poissons Ratio (z) = 0.04677 0.32467
#
# Static dielectric constant tensor:
#      x y z
#    x 1.706760 -0.158880 0.081240 
#    y -0.158880 1.730800 0.095850 
#    z 0.081240 0.095850 1.831100 
# 
# From -- ./inp_files/466684.got.cif
#   From: 2010.05.17/outbox.cif.g08.bks.cpg/sg2_234_cif.got.tgz:466684.got - 2010.06.03 11:33:40.
