data_PCOD9008301
_publ_section_title
;
Structure prediction by ZEFSAII (Michael W. Deem and Ramdas Pophale) SiO2 
 PCOD9008301
Probable space group: P -1
;
_chemical_formula_sum "Si O2"
_cell_formula_units_Z 12
_cell_length_a 8.915064
_cell_length_b 10.143673
_cell_length_c 8.661514
_cell_angle_alpha 81.584425
_cell_angle_beta 114.292485
_cell_angle_gamma 136.739402
_cell_volume 474.309971
_symmetry_space_group_name_H-M "P -1"
_symmetry_group_IT_number 2
_symmetry_cell_setting 'triclinic'
loop_
_space_group_symop_operation_xyz
x,y,z
-x,-y,-z
loop_
_atom_site_type_symbol
_atom_site_label
_atom_site_fract_x
_atom_site_fract_y
_atom_site_fract_z
Si Si1 0.330106 0.835604 0.322561
Si Si2 0.998918 0.971293 0.320854
Si Si3 0.553542 0.594868 0.673730
Si Si4 0.011864 0.336870 0.551173
Si Si5 0.599777 0.146882 0.159025
Si Si6 0.550211 0.310720 0.866003
O O1 0.111261 0.649243 0.369582
O O2 0.360790 0.981245 0.195397
O O3 0.500000 0.000000 0.500000
O O4 0.834139 0.234131 0.342407
O O5 0.215761 0.172706 0.289757
O O6 0.734567 0.862443 0.178019
O O7 0.000000 0.000000 0.500000
O O8 0.014323 0.822757 0.350721
O O9 0.500000 0.500000 0.500000
O O10 0.606740 0.498470 0.819837
O O11 0.303008 0.521630 0.620933
O O12 0.406871 0.757104 0.256415
O O13 0.500000 0.000000 0.000000
O O14 0.673974 0.324470 0.067733
#
# Coordination Sequence:
#
# PCOD9008301 Si02
#       6
#     2   2   2   2   2   2
#     4   9  18  34  63  88 120 151 193 244 300 341
#     4  11  19  38  63  83 119 155 207 235 285 358
#     4  11  23  36  63  87 119 159 206 234 283 363
#     4  10  21  39  64  93 113 157 198 246 294 347
#     4   9  18  34  63  88 120 151 193 244 300 341
#     4  10  21  39  64  93 113 157 198 246 294 347
#
# _framework density 25.299913
#
# number of rings (size 3 to 8) (size 9 to 14) (size 15 to 20)
#    0.000    2.000    3.333    3.000    0.000    0.000 
#    0.000    8.333    0.000   26.000    0.000    0.000 
#    0.000    0.000    0.000    0.000    0.000    0.000 
#
# Total GULP energy -66922.309767 kJ/mol
# GULP energy per Si atom -5576.859147 kJ/mol
# Density = 2.524233 g / cm^3
# Si number density = 25.299913 Si / 1000 Ang^3
#
#
#
# Elastic Constant Matrix: (Units=GPa)
#
#
# Indices 1 2 3 4 5 6 
#
# 1 112.5149 52.8386 54.5663 -7.1579 5.8046 20.4002
# 2 52.8386 172.2287 54.4610 -6.0275 5.7143 17.3751
# 3 54.5663 54.4610 166.9819 -17.2148 2.6954 8.0496
# 4 -7.1579 -6.0275 -17.2148 44.7712 -3.9727 1.8849
# 5 5.8046 5.7143 2.6954 -3.9727 38.7522 -14.6154
# 6 20.4002 17.3751 8.0496 1.8849 -14.6154 41.0661
#
#
#
# Elastic Compliance Matrix: (Units=1/GPa)
#
#
# Indices 1 2 3 4 5 6 
#
# 1 0.012713 -0.002186 -0.003036 0.000506 -0.003622 -0.006108
# 2 -0.002186 0.007225 -0.001512 0.000005 -0.001460 -0.002194
# 3 -0.003036 -0.001512 0.007661 0.002284 0.000674 0.000782
# 4 0.000506 0.000005 0.002284 0.023498 0.001735 -0.001162
# 5 -0.003622 -0.001460 0.000674 0.001735 0.031793 0.013521
# 6 -0.006108 -0.002194 0.000782 -0.001162 0.013521 0.033026
#
#
# Mechanical properties :
#
#
# Convention : Reuss Voigt Hill
#
# Bulk Modulus (GPa) = 70.77145 86.16191 78.46668
# Shear Modulus (GPa) = 37.28663 44.24186 40.76425
#
# Velocity S-wave (km/s) = 3.84316 4.18628 4.01838
# Velocity P-wave (km/s) = 6.90846 7.58266 7.25340
#
# Compressibility (1/GPa) = 0.01412999
#
# Stress axis : x y z
#
# Youngs Moduli (GPa) = 78.65688 138.40659 130.53154
#
# Poissons Ratio (x) = 0.30258 0.39634
# Poissons Ratio (y) = 0.17196 0.19740
# Poissons Ratio (z) = 0.23883 0.20931
#
# Static dielectric constant tensor:
#      x y z
#    x 2.236930 0.062180 0.129860 
#    y 0.062180 2.142380 -0.047980 
#    z 0.129860 -0.047980 2.058360 
# 
# From -- ./inp_files/429708.got.cif
#   From: 2010.05.17/outbox.cif.g08.bks.cpg/sg2_215_cif.got.tgz:429708.got - 2010.06.03 11:33:40.
