data_PCOD9008310
_publ_section_title
;
Structure prediction by ZEFSAII (Michael W. Deem and Ramdas Pophale) SiO2 
 PCOD9008310
Probable space group: P -1
;
_chemical_formula_sum "Si O2"
_cell_formula_units_Z 14
_cell_length_a 14.791696
_cell_length_b 11.394537
_cell_length_c 9.162973
_cell_angle_alpha 104.338841
_cell_angle_beta 70.790599
_cell_angle_gamma 150.274934
_cell_volume 720.727948
_symmetry_space_group_name_H-M "P -1"
_symmetry_group_IT_number 2
_symmetry_cell_setting 'triclinic'
loop_
_space_group_symop_operation_xyz
x,y,z
-x,-y,-z
loop_
_atom_site_type_symbol
_atom_site_label
_atom_site_fract_x
_atom_site_fract_y
_atom_site_fract_z
Si Si1 0.487368 0.760723 0.781429
Si Si2 0.137156 0.201024 0.280767
Si Si3 0.155997 0.951287 0.167879
Si Si4 0.070409 0.666999 0.888550
Si Si5 0.265514 0.564573 0.139981
Si Si6 0.548688 0.030740 0.316698
Si Si7 0.200503 0.314354 0.613773
O O1 0.475487 0.872458 0.733148
O O2 0.388391 0.549528 0.671851
O O3 0.697386 0.954798 0.775935
O O4 0.369812 0.648748 0.958714
O O5 0.177765 0.348842 0.190076
O O6 0.219544 0.324202 0.433577
O O7 0.217059 0.157296 0.176689
O O8 0.915949 0.930016 0.343514
O O9 0.949418 0.741728 0.284851
O O10 0.139875 0.861446 0.998848
O O11 0.240647 0.789088 0.754109
O O12 0.899007 0.519553 0.833108
O O13 0.000000 0.500000 0.000000
O O14 0.412711 0.784032 0.239725
O O15 0.500000 0.000000 0.500000
#
# Coordination Sequence:
#
# PCOD9008310 Si02
#       7
#     2   2   2   2   2   2   2
#     4  12  22  39  69  89 122 171 207 261 316 364
#     4   9  22  42  61  95 130 161 205 262 311 375
#     4  10  21  39  64  93 122 163 208 252 311 376
#     4  12  23  42  68  93 124 170 214 260 314 373
#     4  12  23  41  68  92 126 167 211 259 316 375
#     4  12  27  44  62  98 130 160 216 269 312 374
#     4   9  20  43  60  92 133 157 207 260 310 372
#
# _framework density 19.424804999999999
#
# number of rings (size 3 to 8) (size 9 to 14) (size 15 to 20)
#    0.857    0.286    4.286    2.143    0.000    5.143 
#    2.571    0.000    0.000    0.000    0.000    0.000 
#    0.000    0.000    0.000    0.000    0.000    0.000 
#
# Total GULP energy -78183.338143 kJ/mol
# GULP energy per Si atom -5584.524153 kJ/mol
# Density = 1.938059 g / cm^3
# Si number density = 19.424805 Si / 1000 Ang^3
#
#
#
# Elastic Constant Matrix: (Units=GPa)
#
#
# Indices 1 2 3 4 5 6 
#
# 1 63.7008 6.8983 13.5189 -27.7003 8.9355 -12.0738
# 2 6.8983 34.6134 18.7875 -3.4737 -0.3020 4.0699
# 3 13.5189 18.7875 95.8408 -15.9015 -2.6941 -11.8491
# 4 -27.7003 -3.4737 -15.9015 31.0158 -4.6688 4.6541
# 5 8.9355 -0.3020 -2.6941 -4.6688 16.3434 -3.2115
# 6 -12.0738 4.0699 -11.8491 4.6541 -3.2115 39.8159
#
#
#
# Elastic Compliance Matrix: (Units=1/GPa)
#
#
# Indices 1 2 3 4 5 6 
#
# 1 0.028324 -0.004839 0.001392 0.023423 -0.007444 0.006159
# 2 -0.004839 0.034371 -0.007455 -0.003304 -0.000234 -0.006832
# 3 0.001392 -0.007455 0.013625 0.007342 0.004375 0.004734
# 4 0.023423 -0.003304 0.007342 0.056834 0.005248 0.003405
# 5 -0.007444 -0.000234 0.004375 0.005248 0.068251 0.003960
# 6 0.006159 -0.006832 0.004734 0.003405 0.003960 0.029012
#
#
# Mechanical properties :
#
#
# Convention : Reuss Voigt Hill
#
# Bulk Modulus (GPa) = 18.34284 30.28495 24.31389
# Shear Modulus (GPa) = 18.49161 27.76504 23.12832
#
# Velocity S-wave (km/s) = 3.08873 3.78479 3.45434
# Velocity P-wave (km/s) = 4.70997 5.89273 5.33423
#
# Compressibility (1/GPa) = 0.05451718
#
# Stress axis : x y z
#
# Youngs Moduli (GPa) = 35.30524 29.09447 73.39293
#
# Poissons Ratio (x) = 0.14079 -0.10215
# Poissons Ratio (y) = 0.17084 0.54711
# Poissons Ratio (z) = -0.04914 0.21689
#
# Static dielectric constant tensor:
#      x y z
#    x 1.660880 -0.010650 -0.023330 
#    y -0.010650 1.695140 0.009930 
#    z -0.023330 0.009930 1.649320 
# 
# From -- ./inp_files/307973.got.cif
#   From: 2010.05.17/outbox.cif.g08.bks.cpg/sg2_154_cif.got.tgz:307973.got - 2010.06.03 11:33:40.
