data_PCOD9008238
_publ_section_title
;
Structure prediction by ZEFSAII (Michael W. Deem and Ramdas Pophale) SiO2 
 PCOD9008238
Probable space group: P -1
;
_chemical_formula_sum "Si O2"
_cell_formula_units_Z 14
_cell_length_a 14.483203
_cell_length_b 11.095591
_cell_length_c 11.512320
_cell_angle_alpha 141.951583
_cell_angle_beta 29.624135
_cell_angle_gamma 125.937002
_cell_volume 533.877974
_symmetry_space_group_name_H-M "P -1"
_symmetry_group_IT_number 2
_symmetry_cell_setting 'triclinic'
loop_
_space_group_symop_operation_xyz
x,y,z
-x,-y,-z
loop_
_atom_site_type_symbol
_atom_site_label
_atom_site_fract_x
_atom_site_fract_y
_atom_site_fract_z
Si Si1 0.854340 0.190778 0.236185
Si Si2 0.629855 0.517800 0.183267
Si Si3 0.230341 0.015405 0.023415
Si Si4 0.140023 0.626847 0.402584
Si Si5 0.488485 0.157544 0.024143
Si Si6 0.194254 0.189169 0.686484
Si Si7 0.074218 0.778580 0.190422
O O1 0.762993 0.337119 0.554531
O O2 0.012096 0.247595 0.021191
O O3 0.704762 0.107570 0.262536
O O4 0.000000 0.000000 0.000000
O O5 0.703994 0.499389 0.956929
O O6 0.478219 0.385357 0.251236
O O7 0.809877 0.380810 0.963590
O O8 0.628533 0.734950 0.403596
O O9 0.017412 0.174125 0.337339
O O10 0.213241 0.827615 0.979013
O O11 0.325909 0.147579 0.100821
O O12 0.000000 0.500000 0.500000
O O13 0.692398 0.051918 0.649577
O O14 0.500000 0.000000 0.000000
O O15 0.098866 0.270777 0.727622
O O16 0.000000 0.000000 0.500000
#
# Coordination Sequence:
#
# PCOD9008238 Si02
#       7
#     2   2   2   2   2   2   2
#     4   9  19  39  65  88 117 165 220 260 306 361
#     4  12  23  40  67  95 129 163 217 267 315 375
#     4  10  21  39  64  91 124 171 208 257 326 379
#     4  11  21  41  67  93 123 159 220 275 303 362
#     4  12  24  43  61  92 143 171 199 254 333 394
#     4  11  23  39  64  95 127 164 218 265 314 373
#     4  11  18  39  64  93 122 166 213 270 317 363
#
# _framework density 26.223219
#
# number of rings (size 3 to 8) (size 9 to 14) (size 15 to 20)
#    0.000    1.143    5.714    2.143    0.000    0.571 
#    2.571    7.143    0.000    0.000    0.000    0.000 
#    0.000    0.000    0.000    0.000    0.000    0.000 
#
# Total GULP energy -78155.190433 kJ/mol
# GULP energy per Si atom -5582.513602 kJ/mol
# Density = 2.616353 g / cm^3
# Si number density = 26.223219 Si / 1000 Ang^3
#
#
#
# Elastic Constant Matrix: (Units=GPa)
#
#
# Indices 1 2 3 4 5 6 
#
# 1 225.3427 44.8295 33.7572 -14.2610 24.2590 54.0469
# 2 44.8295 103.4867 14.5251 -7.1586 9.2068 30.0338
# 3 33.7572 14.5251 53.9854 -3.0751 11.4902 3.4414
# 4 -14.2610 -7.1586 -3.0751 32.5559 9.1592 8.8115
# 5 24.2590 9.2068 11.4902 9.1592 38.4553 -0.3765
# 6 54.0469 30.0338 3.4414 8.8115 -0.3765 58.4175
#
#
#
# Elastic Compliance Matrix: (Units=1/GPa)
#
#
# Indices 1 2 3 4 5 6 
#
# 1 0.007953 0.000506 -0.002835 0.007381 -0.006133 -0.008604
# 2 0.000506 0.012840 -0.001983 0.006228 -0.004362 -0.007920
# 3 -0.002835 -0.001983 0.021695 0.001032 -0.004444 0.002180
# 4 0.007381 0.006228 0.001032 0.044881 -0.017312 -0.016973
# 5 -0.006133 -0.004362 -0.004444 -0.017312 0.036477 0.011025
# 6 -0.008604 -0.007920 0.002180 -0.016973 0.011025 0.031653
#
#
# Mechanical properties :
#
#
# Convention : Reuss Voigt Hill
#
# Bulk Modulus (GPa) = 29.52958 63.22649 46.37804
# Shear Modulus (GPa) = 28.50470 45.19927 36.85198
#
# Velocity S-wave (km/s) = 3.30055 4.15617 3.75283
# Velocity P-wave (km/s) = 5.08037 6.86986 6.04173
#
# Compressibility (1/GPa) = 0.03386435
#
# Stress axis : x y z
#
# Youngs Moduli (GPa) = 125.74505 77.88371 46.09311
#
# Poissons Ratio (x) = -0.03942 0.13066
# Poissons Ratio (y) = -0.06364 0.09140
# Poissons Ratio (z) = 0.35644 0.15445
#
# Static dielectric constant tensor:
#      x y z
#    x 2.067060 0.017500 0.015670 
#    y 0.017500 2.180310 -0.030960 
#    z 0.015670 -0.030960 2.085030 
# 
# From -- ./inp_files/164912.got.cif
#   From: 2010.05.17/outbox.cif.g08.bks.cpg/sg2_83_cif.got.tgz:164912.got - 2010.06.03 11:33:40.
