data_PCOD9008412
_publ_section_title
;
Structure prediction by ZEFSAII (Michael W. Deem and Ramdas Pophale) SiO2 
 PCOD9008412
Probable space group: P -1
;
_chemical_formula_sum "Si O2"
_cell_formula_units_Z 14
_cell_length_a 7.463339
_cell_length_b 8.972878
_cell_length_c 16.516555
_cell_angle_alpha 148.729551
_cell_angle_beta 108.633438
_cell_angle_gamma 76.090756
_cell_volume 542.839756
_symmetry_space_group_name_H-M "P -1"
_symmetry_group_IT_number 2
_symmetry_cell_setting 'triclinic'
loop_
_space_group_symop_operation_xyz
x,y,z
-x,-y,-z
loop_
_atom_site_type_symbol
_atom_site_label
_atom_site_fract_x
_atom_site_fract_y
_atom_site_fract_z
Si Si1 0.194230 0.430195 0.238299
Si Si2 0.900010 0.238634 0.913514
Si Si3 0.738503 0.575660 0.421710
Si Si4 0.650642 0.620961 0.144244
Si Si5 0.354822 0.832165 0.309363
Si Si6 0.193446 0.720632 0.540574
Si Si7 0.176649 0.878231 0.889316
O O1 0.227587 0.650570 0.271313
O O2 0.261057 0.577301 0.400490
O O3 0.978081 0.329029 0.182892
O O4 0.264866 0.128161 0.075697
O O5 0.753262 0.111039 0.765874
O O6 0.798665 0.382391 0.040612
O O7 0.049997 0.029960 0.872737
O O8 0.000000 0.500000 0.000000
O O9 0.723899 0.444528 0.448328
O O10 0.692179 0.317859 0.233128
O O11 0.963149 0.680354 0.492316
O O12 0.616563 0.841620 0.505431
O O13 0.533900 0.662480 0.228619
O O14 0.743921 0.940742 0.288900
O O15 0.500000 0.500000 0.000000
#
# Coordination Sequence:
#
# PCOD9008412 Si02
#       7
#     2   2   2   2   2   2   2
#     4  10  22  38  62  93 132 160 205 270 314 369
#     4  11  19  38  67  90 118 165 218 258 294 372
#     4  10  21  39  69  94 120 165 213 266 303 371
#     4  10  24  39  62  95 128 167 210 256 311 381
#     4  11  22  38  61  95 125 166 207 256 323 370
#     4  10  21  40  63  92 128 160 215 262 311 365
#     4  10  21  39  64  96 123 163 215 261 315 358
#
# _framework density 25.790299000000001
#
# number of rings (size 3 to 8) (size 9 to 14) (size 15 to 20)
#    0.000    1.714    1.429    4.286    2.000    3.429 
#    2.571    0.714    0.000    0.000    0.000    0.000 
#    0.000    0.000    0.000    0.000    0.000    0.000 
#
# Total GULP energy -78362.213137 kJ/mol
# GULP energy per Si atom -5597.300938 kJ/mol
# Density = 2.573160 g / cm^3
# Si number density = 25.790299 Si / 1000 Ang^3
#
#
#
# Elastic Constant Matrix: (Units=GPa)
#
#
# Indices 1 2 3 4 5 6 
#
# 1 77.0269 51.8517 30.6644 -9.9783 -3.3996 12.6336
# 2 51.8517 158.9983 63.2066 -1.0125 -13.3077 22.9280
# 3 30.6644 63.2066 206.3644 -23.7388 -33.9261 12.8415
# 4 -9.9783 -1.0125 -23.7388 32.2644 5.7296 -2.2927
# 5 -3.3996 -13.3077 -33.9261 5.7296 51.0705 -5.1300
# 6 12.6336 22.9280 12.8415 -2.2927 -5.1300 29.2888
#
#
#
# Elastic Compliance Matrix: (Units=1/GPa)
#
#
# Indices 1 2 3 4 5 6 
#
# 1 0.017818 -0.005232 -0.000499 0.004998 -0.001393 -0.003224
# 2 -0.005232 0.009513 -0.002139 -0.003320 0.000640 -0.004400
# 3 -0.000499 -0.002139 0.006592 0.004031 0.003326 -0.000103
# 4 0.004998 -0.003320 0.004031 0.035796 -0.001753 0.001171
# 5 -0.001393 0.000640 0.003326 -0.001753 0.022303 0.002411
# 6 -0.003224 -0.004400 -0.000103 0.001171 0.002411 0.039537
#
#
# Mechanical properties :
#
#
# Convention : Reuss Voigt Hill
#
# Bulk Modulus (GPa) = 54.99700 81.53721 68.26710
# Shear Modulus (GPa) = 32.60326 42.30252 37.45289
#
# Velocity S-wave (km/s) = 3.55937 4.05439 3.81492
# Velocity P-wave (km/s) = 6.18572 7.32131 6.77734
#
# Compressibility (1/GPa) = 0.01818281
#
# Stress axis : x y z
#
# Youngs Moduli (GPa) = 56.12336 105.11932 151.70193
#
# Poissons Ratio (x) = 0.55003 0.07562
# Poissons Ratio (y) = 0.29366 0.32450
# Poissons Ratio (z) = 0.02798 0.22486
#
# Static dielectric constant tensor:
#      x y z
#    x 2.253110 0.053030 0.084700 
#    y 0.053030 2.080970 0.005750 
#    z 0.084700 0.005750 2.121020 
# 
# From -- ./inp_files/556718.got.cif
#   From: 2010.05.17/outbox.cif.g08.bks.cpg/sg2_279_cif.got.tgz:556718.got - 2010.06.03 11:33:40.
