data_PCOD9008610
_publ_section_title
;
Structure prediction by ZEFSAII (Michael W. Deem and Ramdas Pophale) SiO2 
 PCOD9008610
Probable space group: P -1
;
_chemical_formula_sum "Si O2"
_cell_formula_units_Z 14
_cell_length_a 8.852884
_cell_length_b 6.907939
_cell_length_c 18.918656
_cell_angle_alpha 56.509860
_cell_angle_beta 142.248000
_cell_angle_gamma 100.105714
_cell_volume 507.864652
_symmetry_space_group_name_H-M "P -1"
_symmetry_group_IT_number 2
_symmetry_cell_setting 'triclinic'
loop_
_space_group_symop_operation_xyz
x,y,z
-x,-y,-z
loop_
_atom_site_type_symbol
_atom_site_label
_atom_site_fract_x
_atom_site_fract_y
_atom_site_fract_z
Si Si1 0.134096 0.781455 0.979747
Si Si2 0.443776 0.941247 0.155854
Si Si3 0.709785 0.863914 0.707219
Si Si4 0.768393 0.399901 0.244326
Si Si5 0.967463 0.378668 0.816782
Si Si6 0.228743 0.305774 0.529045
Si Si7 0.963770 0.919855 0.308426
O O1 0.966357 0.114265 0.843250
O O2 0.286786 0.773786 0.112496
O O3 0.425037 0.590104 0.082244
O O4 0.881365 0.735897 0.869364
O O5 0.616325 0.835783 0.312752
O O6 0.666729 0.924670 0.181881
O O7 0.192538 0.249338 0.991452
O O8 0.417293 0.121962 0.570598
O O9 0.913449 0.946903 0.724953
O O10 0.700128 0.649093 0.694924
O O11 0.895734 0.538337 0.212606
O O12 0.916921 0.348334 0.386894
O O13 0.874105 0.111687 0.305277
O O14 0.185824 0.602002 0.457595
#
# Coordination Sequence:
#
# PCOD9008610 Si02
#       7
#     2   2   2   2   2   2   2
#     4  10  21  39  65  92 122 168 203 264 304 367
#     4  10  23  42  66  91 131 159 217 256 311 366
#     4  11  24  40  68  93 127 165 213 252 321 361
#     4  11  22  39  71  90 125 165 216 253 320 353
#     4   9  21  40  61  96 120 161 213 259 295 387
#     4  12  25  43  60  97 134 165 196 270 313 374
#     4  11  23  41  65  97 122 165 216 257 298 392
#
# _framework density 27.566398
#
# number of rings (size 3 to 8) (size 9 to 14) (size 15 to 20)
#    0.857    0.571    1.429    3.857    0.000    7.429 
#    2.571    0.000    0.000    0.000    0.000    0.000 
#    0.000    0.000    0.000    0.000    0.000    0.000 
#
# Total GULP energy -78203.346571 kJ/mol
# GULP energy per Si atom -5585.953326 kJ/mol
# Density = 2.750366 g / cm^3
# Si number density = 27.566398 Si / 1000 Ang^3
#
#
#
# Elastic Constant Matrix: (Units=GPa)
#
#
# Indices 1 2 3 4 5 6 
#
# 1 71.1896 20.5727 28.8044 -22.7974 12.5414 -7.5092
# 2 20.5727 111.6222 37.9017 -13.9308 9.6963 -52.1004
# 3 28.8044 37.9017 123.1406 -3.7288 7.4997 -17.9516
# 4 -22.7974 -13.9308 -3.7288 57.2885 -7.2798 16.0514
# 5 12.5414 9.6963 7.4997 -7.2798 55.1638 -9.8667
# 6 -7.5092 -52.1004 -17.9516 16.0514 -9.8667 41.2518
#
#
#
# Elastic Compliance Matrix: (Units=1/GPa)
#
#
# Indices 1 2 3 4 5 6 
#
# 1 0.019292 -0.004741 -0.003780 0.008112 -0.003416 -0.008095
# 2 -0.004741 0.024434 -0.002104 -0.004608 0.002072 0.031370
# 3 -0.003780 -0.002104 0.009839 -0.001842 -0.000058 0.001639
# 4 0.008112 -0.004608 -0.001842 0.023423 -0.000254 -0.014320
# 5 -0.003416 0.002072 -0.000058 -0.000254 0.019729 0.006787
# 6 -0.008095 0.031370 0.001639 -0.014320 0.006787 0.070296
#
#
# Mechanical properties :
#
#
# Convention : Reuss Voigt Hill
#
# Bulk Modulus (GPa) = 30.94545 53.38998 42.16772
# Shear Modulus (GPa) = 25.12115 45.31905 35.22010
#
# Velocity S-wave (km/s) = 3.02204 4.05902 3.57830
# Velocity P-wave (km/s) = 4.84016 6.43252 5.69230
#
# Compressibility (1/GPa) = 0.03231493
#
# Stress axis : x y z
#
# Youngs Moduli (GPa) = 51.83414 40.92660 101.63337
#
# Poissons Ratio (x) = 0.19405 0.38415
# Poissons Ratio (y) = 0.24577 0.21385
# Poissons Ratio (z) = 0.19592 0.08611
#
# Static dielectric constant tensor:
#      x y z
#    x 2.246200 -0.010210 -0.058820 
#    y -0.010210 2.183450 0.013950 
#    z -0.058820 0.013950 2.150640 
# 
# From -- ./inp_files/587846.got.cif
#   From: 2010.05.17/outbox.cif.g08.bks.cpg/sg2_294_cif.got.tgz:587846.got - 2010.06.03 11:33:40.
