data_PCOD9008291
_publ_section_title
;
Structure prediction by ZEFSAII (Michael W. Deem and Ramdas Pophale) SiO2 
 PCOD9008291
Probable space group: P -1
;
_chemical_formula_sum "Si O2"
_cell_formula_units_Z 16
_cell_length_a 6.493091
_cell_length_b 6.494973
_cell_length_c 21.677849
_cell_angle_alpha 91.352562
_cell_angle_beta 123.356570
_cell_angle_gamma 72.056915
_cell_volume 714.135563
_symmetry_space_group_name_H-M "P -1"
_symmetry_group_IT_number 2
_symmetry_cell_setting 'triclinic'
loop_
_space_group_symop_operation_xyz
x,y,z
-x,-y,-z
loop_
_atom_site_type_symbol
_atom_site_label
_atom_site_fract_x
_atom_site_fract_y
_atom_site_fract_z
Si Si1 0.215541 0.983126 0.445997
Si Si2 0.745856 0.277933 0.672548
Si Si3 0.875474 0.451316 0.080561
Si Si4 0.509092 0.739032 0.820111
Si Si5 0.876901 0.489441 0.218710
Si Si6 0.558495 0.175693 0.052919
Si Si7 0.720676 0.264118 0.423072
Si Si8 0.599790 0.939913 0.713954
O O1 0.187786 0.893832 0.373779
O O2 0.202900 0.808819 0.494769
O O3 0.500000 0.000000 0.500000
O O4 0.986757 0.212882 0.427088
O O5 0.495687 0.494565 0.615813
O O6 0.993057 0.350492 0.728232
O O7 0.657715 0.161115 0.714247
O O8 0.784861 0.560369 0.133910
O O9 0.813225 0.226393 0.072138
O O10 0.181822 0.403625 0.124092
O O11 0.691424 0.601404 0.999301
O O12 0.344115 0.577433 0.783372
O O13 0.418503 0.864066 0.870734
O O14 0.485211 0.900075 0.760006
O O15 0.123656 0.260902 0.249329
O O16 0.500000 0.000000 0.000000
O O17 0.588508 0.098467 0.370157
#
# Coordination Sequence:
#
# PCOD9008291 Si02
#       8
#     2   2   2   2   2   2   2   2
#     4  11  23  45  70  97 138 173 221 286 328 395
#     4  11  23  45  72  97 135 184 221 273 343 396
#     4   9  20  41  61  92 129 164 219 273 318 383
#     4  10  21  41  68  92 135 172 211 279 325 383
#     4   9  22  42  64  94 133 171 222 275 326 395
#     4  10  21  39  64  92 129 170 215 269 327 388
#     4  10  24  45  64 100 134 171 226 274 334 402
#     4  10  22  43  62  98 134 167 222 275 323 401
#
# _framework density 22.404709
#
# number of rings (size 3 to 8) (size 9 to 14) (size 15 to 20)
#    0.000    2.000    1.250    0.750    1.750    4.000 
#    9.000    8.750    0.000    0.000    0.000    0.000 
#    0.000    0.000    0.000    0.000    0.000    0.000 
#
# Total GULP energy -89470.275289 kJ/mol
# GULP energy per Si atom -5591.892206 kJ/mol
# Density = 2.235371 g / cm^3
# Si number density = 22.404709 Si / 1000 Ang^3
#
#
#
# Elastic Constant Matrix: (Units=GPa)
#
#
# Indices 1 2 3 4 5 6 
#
# 1 133.8962 38.7338 36.7850 6.6520 4.3104 20.4260
# 2 38.7338 44.1756 13.1469 9.6529 -15.8052 13.7543
# 3 36.7850 13.1469 87.1855 7.3136 -13.0798 17.3722
# 4 6.6520 9.6529 7.3136 35.9653 2.0642 7.5174
# 5 4.3104 -15.8052 -13.0798 2.0642 45.6751 -5.5332
# 6 20.4260 13.7543 17.3722 7.5174 -5.5332 30.3338
#
#
#
# Elastic Compliance Matrix: (Units=1/GPa)
#
#
# Indices 1 2 3 4 5 6 
#
# 1 0.012629 -0.012132 -0.004284 0.002720 -0.007044 -0.002509
# 2 -0.012132 0.042528 0.003491 -0.009174 0.016323 -0.007862
# 3 -0.004284 0.003491 0.014868 -0.002283 0.005285 -0.005683
# 4 0.002720 -0.009174 -0.002283 0.031699 -0.006165 -0.005345
# 5 -0.007044 0.016323 0.005285 -0.006165 0.030162 0.001345
# 6 -0.002509 -0.007862 -0.005683 -0.005345 0.001345 0.043045
#
#
# Mechanical properties :
#
#
# Convention : Reuss Voigt Hill
#
# Bulk Modulus (GPa) = 22.63752 49.17654 35.90703
# Shear Modulus (GPa) = 23.20117 34.16761 28.68439
#
# Velocity S-wave (km/s) = 3.22149 3.90939 3.58199
# Velocity P-wave (km/s) = 4.89522 6.50958 5.75924
#
# Compressibility (1/GPa) = 0.04417446
#
# Stress axis : x y z
#
# Youngs Moduli (GPa) = 79.18094 23.51387 67.26009
#
# Poissons Ratio (x) = 0.28527 0.28815
# Poissons Ratio (y) = 0.96062 -0.23479
# Poissons Ratio (z) = 0.33922 -0.08208
#
# Static dielectric constant tensor:
#      x y z
#    x 1.861360 0.010120 -0.010830 
#    y 0.010120 1.818520 -0.009690 
#    z -0.010830 -0.009690 1.823730 
# 
# From -- ./inp_files/603286.got.cif
#   From: 2010.05.17/outbox.cif.g08.bks.cpg/sg2_302_cif.got.tgz:603286.got - 2010.06.03 11:33:40.
