data_PCOD9008506
_publ_section_title
;
Structure prediction by ZEFSAII (Michael W. Deem and Ramdas Pophale) SiO2 
 PCOD9008506
Probable space group: P -1
;
_chemical_formula_sum "Si O2"
_cell_formula_units_Z 16
_cell_length_a 7.628672
_cell_length_b 10.326134
_cell_length_c 10.571907
_cell_angle_alpha 86.650899
_cell_angle_beta 115.619826
_cell_angle_gamma 116.276092
_cell_volume 664.155833
_symmetry_space_group_name_H-M "P -1"
_symmetry_group_IT_number 2
_symmetry_cell_setting 'triclinic'
loop_
_space_group_symop_operation_xyz
x,y,z
-x,-y,-z
loop_
_atom_site_type_symbol
_atom_site_label
_atom_site_fract_x
_atom_site_fract_y
_atom_site_fract_z
Si Si1 0.585906 0.545133 0.666317
Si Si2 0.990376 0.700063 0.061166
Si Si3 0.401506 0.746813 0.301400
Si Si4 0.614163 0.912338 0.109403
Si Si5 0.507644 0.871825 0.586752
Si Si6 0.902895 0.864811 0.824707
Si Si7 0.735497 0.383084 0.054809
Si Si8 0.202436 0.607050 0.640872
O O1 0.500000 0.500000 0.500000
O O2 0.623127 0.411158 0.736483
O O3 0.798171 0.702835 0.736478
O O4 0.397601 0.563111 0.683580
O O5 0.161277 0.739891 0.227890
O O6 0.778031 0.547191 0.029806
O O7 0.944277 0.826414 0.982336
O O8 0.129889 0.665294 0.998876
O O9 0.505744 0.775345 0.470841
O O10 0.544449 0.870311 0.236671
O O11 0.837045 0.394125 0.223944
O O12 0.870940 0.015948 0.169435
O O13 0.500000 0.000000 0.000000
O O14 0.508805 0.751615 0.019861
O O15 0.714384 0.911792 0.738595
O O16 0.295536 0.771126 0.607538
O O17 0.500000 0.000000 0.500000
O O18 0.000000 0.500000 0.500000
#
# Coordination Sequence:
#
# PCOD9008506 Si02
#       8
#     2   2   2   2   2   2   2   2
#     4  11  23  44  68 101 134 182 233 275 351 408
#     4  10  21  40  73  98 131 188 223 281 353 405
#     4  11  22  44  70  96 137 184 231 281 341 420
#     4  11  23  38  66 105 132 176 233 282 333 414
#     4  11  27  45  63  98 144 186 222 283 357 408
#     4  11  22  43  69 102 130 185 232 277 344 415
#     4  10  21  39  65 104 142 170 229 290 343 402
#     4  11  25  42  71 104 136 178 234 296 334 404
#
# _framework density 24.090730000000001
#
# number of rings (size 3 to 8) (size 9 to 14) (size 15 to 20)
#    0.000    1.250    5.000    3.000    3.500    1.500 
#    0.000   15.625    0.000    0.000    0.000    0.000 
#    0.000    0.000    0.000    0.000    0.000    0.000 
#
# Total GULP energy -89502.862439 kJ/mol
# GULP energy per Si atom -5593.928902 kJ/mol
# Density = 2.403590 g / cm^3
# Si number density = 24.090730 Si / 1000 Ang^3
#
#
#
# Elastic Constant Matrix: (Units=GPa)
#
#
# Indices 1 2 3 4 5 6 
#
# 1 52.3293 27.4435 21.6991 12.0048 15.4840 18.1634
# 2 27.4435 169.2060 18.4934 -4.3312 25.4232 19.2253
# 3 21.6991 18.4934 113.3498 -2.1801 22.4690 13.5057
# 4 12.0048 -4.3312 -2.1801 50.5083 9.2742 8.3350
# 5 15.4840 25.4232 22.4690 9.2742 50.0464 5.9508
# 6 18.1634 19.2253 13.5057 8.3350 5.9508 46.3799
#
#
#
# Elastic Compliance Matrix: (Units=1/GPa)
#
#
# Indices 1 2 3 4 5 6 
#
# 1 0.026463 -0.002729 -0.003158 -0.004837 -0.003658 -0.006974
# 2 -0.002729 0.007052 0.000239 0.002134 -0.003012 -0.001921
# 3 -0.003158 0.000239 0.010445 0.002259 -0.004040 -0.001792
# 4 -0.004837 0.002134 0.002259 0.022556 -0.004409 -0.003136
# 5 -0.003658 -0.003012 -0.004040 -0.004409 0.025104 0.001429
# 6 -0.006974 -0.001921 -0.001792 -0.003136 0.001429 0.025991
#
#
# Mechanical properties :
#
#
# Convention : Reuss Voigt Hill
#
# Bulk Modulus (GPa) = 30.61354 52.23968 41.42661
# Shear Modulus (GPa) = 35.76676 47.20353 41.48514
#
# Velocity S-wave (km/s) = 3.85732 4.43132 4.15425
# Velocity P-wave (km/s) = 5.70734 6.92198 6.34380
#
# Compressibility (1/GPa) = 0.03266528
#
# Stress axis : x y z
#
# Youngs Moduli (GPa) = 37.78862 141.80570 95.73520
#
# Poissons Ratio (x) = 0.38695 0.30230
# Poissons Ratio (y) = 0.10311 -0.02287
# Poissons Ratio (z) = 0.11933 -0.03388
#
# Static dielectric constant tensor:
#      x y z
#    x 1.938400 -0.058420 -0.012510 
#    y -0.058420 2.009060 0.056740 
#    z -0.012510 0.056740 1.966380 
# 
# From -- ./inp_files/555386.got.cif
#   From: 2010.05.17/outbox.cif.g08.bks.cpg/sg2_278_cif.got.tgz:555386.got - 2010.06.03 11:33:40.
