data_PCOD9009187
_publ_section_title
;
Structure prediction by ZEFSAII (Michael W. Deem and Ramdas Pophale) SiO2 
 PCOD9009187
Probable space group: P -1
;
_chemical_formula_sum "Si O2"
_cell_formula_units_Z 14
_cell_length_a 17.930019
_cell_length_b 9.170290
_cell_length_c 20.710084
_cell_angle_alpha 131.200601
_cell_angle_beta 160.345374
_cell_angle_gamma 39.081929
_cell_volume 678.765772
_symmetry_space_group_name_H-M "P -1"
_symmetry_group_IT_number 2
_symmetry_cell_setting 'triclinic'
loop_
_space_group_symop_operation_xyz
x,y,z
-x,-y,-z
loop_
_atom_site_type_symbol
_atom_site_label
_atom_site_fract_x
_atom_site_fract_y
_atom_site_fract_z
Si Si1 0.048863 0.694567 0.518766
Si Si2 0.163148 0.172557 0.178908
Si Si3 0.798354 0.412494 0.691354
Si Si4 0.446753 0.634602 0.265892
Si Si5 0.715085 0.194652 0.450906
Si Si6 0.370681 0.402126 0.823016
Si Si7 0.741396 0.881558 0.910449
O O1 0.301943 0.529063 0.627538
O O2 0.169016 0.597457 0.660538
O O3 0.813993 0.655412 0.304904
O O4 0.899700 0.983275 0.486510
O O5 0.228230 0.362486 0.297151
O O6 0.164877 0.145327 0.094410
O O7 0.381618 0.895569 0.302355
O O8 0.849180 0.289511 0.979977
O O9 0.500000 0.500000 0.500000
O O10 0.891510 0.203458 0.653564
O O11 0.013494 0.310739 0.896597
O O12 0.532005 0.461127 0.346274
O O13 0.505737 0.145915 0.295275
O O14 0.609800 0.150958 0.908157
O O15 0.500000 0.500000 0.000000
#
# Coordination Sequence:
#
# PCOD9009187 Si02
#       7
#     2   2   2   2   2   2   2
#     4  10  22  42  65  92 129 166 211 260 321 377
#     4  11  23  41  66  92 129 175 208 260 321 375
#     4  12  23  38  68  98 125 166 225 259 306 381
#     4  11  23  43  63  91 136 170 204 259 331 377
#     4  11  23  41  67  94 128 169 212 266 312 378
#     4  10  21  39  67  95 122 163 213 267 310 373
#     4  11  21  42  65  92 129 166 215 262 314 368
#
# _framework density 20.625672000000002
#
# number of rings (size 3 to 8) (size 9 to 14) (size 15 to 20)
#    0.000    1.143    4.286    2.571    0.000    1.714 
#    2.571    0.714    0.000    0.000    0.000    0.000 
#    0.000    0.000    0.000    0.000    0.000    0.000 
#
# Total GULP energy -78260.603155 kJ/mol
# GULP energy per Si atom -5590.043082 kJ/mol
# Density = 2.057873 g / cm^3
# Si number density = 20.625672 Si / 1000 Ang^3
#
#
#
# Elastic Constant Matrix: (Units=GPa)
#
#
# Indices 1 2 3 4 5 6 
#
# 1 46.4049 14.8614 14.1038 10.0502 15.7872 -10.4929
# 2 14.8614 137.4692 43.3471 14.2899 1.1184 0.2536
# 3 14.1038 43.3471 61.5054 14.0701 10.5089 -14.7841
# 4 10.0502 14.2899 14.0701 44.2708 -1.6381 -6.2952
# 5 15.7872 1.1184 10.5089 -1.6381 37.1036 -10.7088
# 6 -10.4929 0.2536 -14.7841 -6.2952 -10.7088 33.2199
#
#
#
# Elastic Compliance Matrix: (Units=1/GPa)
#
#
# Indices 1 2 3 4 5 6 
#
# 1 0.028225 -0.002120 -0.000974 -0.005235 -0.010733 0.004046
# 2 -0.002120 0.009950 -0.007512 -0.000812 0.001620 -0.003720
# 3 -0.000974 -0.007512 0.025660 -0.004390 -0.004231 0.008974
# 4 -0.005235 -0.000812 -0.004390 0.026085 0.005551 0.003131
# 5 -0.010733 0.001620 -0.004231 0.005551 0.034942 0.007031
# 6 0.004046 -0.003720 0.008974 0.003131 0.007031 0.038262
#
#
# Mechanical properties :
#
#
# Convention : Reuss Voigt Hill
#
# Bulk Modulus (GPa) = 23.46127 43.33379 33.39753
# Shear Modulus (GPa) = 25.18340 34.45668 29.82004
#
# Velocity S-wave (km/s) = 3.49803 4.09170 3.80646
# Velocity P-wave (km/s) = 5.26445 6.58619 5.96206
#
# Compressibility (1/GPa) = 0.04262343
#
# Stress axis : x y z
#
# Youngs Moduli (GPa) = 35.43019 100.49970 38.97070
#
# Poissons Ratio (x) = 0.21307 0.03796
# Poissons Ratio (y) = 0.07511 0.29274
# Poissons Ratio (z) = 0.03451 0.75493
#
# Static dielectric constant tensor:
#      x y z
#    x 1.738200 0.008530 -0.006200 
#    y 0.008530 1.765350 -0.017540 
#    z -0.006200 -0.017540 1.720680 
# 
# From -- ./inp_files/71089.got.cif
#   From: 2010.05.17/outbox.cif.g08.bks.cpg/sg2_36_cif.got.tgz:71089.got - 2010.06.03 11:33:40.
