data_PCOD9009495
_publ_section_title
;
Structure prediction by ZEFSAII (Michael W. Deem and Ramdas Pophale) SiO2 
 PCOD9009495
Probable space group: P -1
;
_chemical_formula_sum "Si O2"
_cell_formula_units_Z 16
_cell_length_a 22.060836
_cell_length_b 5.294775
_cell_length_c 11.255804
_cell_angle_alpha 60.474476
_cell_angle_beta 31.448305
_cell_angle_gamma 65.330932
_cell_volume 596.854547
_symmetry_space_group_name_H-M "P -1"
_symmetry_group_IT_number 2
_symmetry_cell_setting 'triclinic'
loop_
_space_group_symop_operation_xyz
x,y,z
-x,-y,-z
loop_
_atom_site_type_symbol
_atom_site_label
_atom_site_fract_x
_atom_site_fract_y
_atom_site_fract_z
Si Si1 0.422370 0.850336 0.357074
Si Si2 0.084757 0.885325 0.282759
Si Si3 0.063565 0.694274 0.992174
Si Si4 0.744753 0.098330 0.189076
Si Si5 0.104370 0.378290 0.521685
Si Si6 0.771960 0.225494 0.497886
Si Si7 0.555991 0.309855 0.298813
Si Si8 0.404663 0.687744 0.047048
O O1 0.350136 0.042707 0.529648
O O2 0.339067 0.801208 0.397075
O O3 0.458681 0.550213 0.425040
O O4 0.545176 0.991273 0.086084
O O5 0.151601 0.638440 0.302660
O O6 0.998549 0.751055 0.360383
O O7 0.178692 0.061058 0.003931
O O8 0.000000 0.000000 0.500000
O O9 0.166517 0.762654 0.897429
O O10 0.128626 0.604560 0.782975
O O11 0.965968 0.514617 0.268157
O O12 0.000000 0.000000 0.000000
O O13 0.670861 0.326046 0.183259
O O14 0.183585 0.100870 0.478273
O O15 0.720459 0.358728 0.673510
O O16 0.588261 0.337493 0.099768
O O17 0.500000 0.000000 0.500000
O O18 0.500000 0.500000 0.000000
#
# Coordination Sequence:
#
# PCOD9009495 Si02
#       8
#     2   2   2   2   2   2   2   2
#     4  11  24  46  65  94 139 177 227 286 329 405
#     4  10  22  40  59  95 128 159 215 277 333 401
#     4   8  17  40  68  90 122 167 222 268 334 401
#     4  10  22  40  66  95 129 178 219 269 349 396
#     4   9  20  40  64  90 123 166 216 273 334 403
#     4  10  21  39  69  89 127 179 214 277 340 388
#     4  12  26  44  67 101 139 180 231 281 332 411
#     4  12  26  43  64 101 138 178 233 279 335 404
#
# _framework density 26.807202
#
# number of rings (size 3 to 8) (size 9 to 14) (size 15 to 20)
#    0.000    1.750    2.500    0.750    3.500    0.000 
#    9.000    0.000    0.000    4.500    0.000    0.000 
#    0.000    0.000    0.000    0.000    0.000    0.000 
#
# Total GULP energy -89476.069939 kJ/mol
# GULP energy per Si atom -5592.254371 kJ/mol
# Density = 2.674619 g / cm^3
# Si number density = 26.807202 Si / 1000 Ang^3
#
#
#
# Elastic Constant Matrix: (Units=GPa)
#
#
# Indices 1 2 3 4 5 6 
#
# 1 177.9936 26.2678 42.2180 15.2718 11.9510 -34.1461
# 2 26.2678 87.0007 36.9055 0.9320 8.3928 -28.1070
# 3 42.2180 36.9055 229.1809 32.2705 44.2312 5.9174
# 4 15.2718 0.9320 32.2705 39.3489 5.4871 5.8563
# 5 11.9510 8.3928 44.2312 5.4871 55.3898 13.8026
# 6 -34.1461 -28.1070 5.9174 5.8563 13.8026 42.7266
#
#
#
# Elastic Compliance Matrix: (Units=1/GPa)
#
#
# Indices 1 2 3 4 5 6 
#
# 1 0.007730 0.001014 -0.000778 -0.003215 -0.002962 0.008350
# 2 0.001014 0.017100 -0.002434 -0.000262 -0.004283 0.013816
# 3 -0.000778 -0.002434 0.006212 -0.004020 -0.003692 -0.001340
# 4 -0.003215 -0.000262 -0.004020 0.030668 0.002716 -0.007266
# 5 -0.002962 -0.004283 -0.003692 0.002716 0.025316 -0.013224
# 6 0.008350 0.013816 -0.001340 -0.007266 -0.013224 0.044620
#
#
# Mechanical properties :
#
#
# Convention : Reuss Voigt Hill
#
# Bulk Modulus (GPa) = 37.52970 78.32863 57.92916
# Shear Modulus (GPa) = 34.50121 53.41198 43.95659
#
# Velocity S-wave (km/s) = 3.59139 4.46853 4.05375
# Velocity P-wave (km/s) = 5.58817 7.47705 6.60053
#
# Compressibility (1/GPa) = 0.02664556
#
# Stress axis : x y z
#
# Youngs Moduli (GPa) = 129.37033 58.48034 160.98340
#
# Poissons Ratio (x) = -0.05931 0.12531
# Poissons Ratio (y) = -0.13120 0.39178
# Poissons Ratio (z) = 0.10070 0.14232
#
# Static dielectric constant tensor:
#      x y z
#    x 2.111580 0.060070 0.028600 
#    y 0.060070 2.242570 -0.035650 
#    z 0.028600 -0.035650 2.177960 
# 
# From -- ./inp_files/473351.got.cif
#   From: 2010.05.17/outbox.cif.g08.bks.cpg/sg2_237_cif.got.tgz:473351.got - 2010.06.03 11:33:40.
