data_PCOD9009718
_publ_section_title
;
Structure prediction by ZEFSAII (Michael W. Deem and Ramdas Pophale) SiO2 
 PCOD9009718
Probable space group: P -1
;
_chemical_formula_sum "Si O2"
_cell_formula_units_Z 16
_cell_length_a 12.771672
_cell_length_b 8.949390
_cell_length_c 17.276103
_cell_angle_alpha 126.919961
_cell_angle_beta 136.282166
_cell_angle_gamma 85.738639
_cell_volume 827.911862
_symmetry_space_group_name_H-M "P -1"
_symmetry_group_IT_number 2
_symmetry_cell_setting 'triclinic'
loop_
_space_group_symop_operation_xyz
x,y,z
-x,-y,-z
loop_
_atom_site_type_symbol
_atom_site_label
_atom_site_fract_x
_atom_site_fract_y
_atom_site_fract_z
Si Si1 0.842088 0.902201 0.956540
Si Si2 0.464418 0.174844 0.706863
Si Si3 0.308046 0.886472 0.812517
Si Si4 0.938699 0.070502 0.674023
Si Si5 0.570941 0.198357 0.311695
Si Si6 0.853553 0.548552 0.953306
Si Si7 0.354887 0.359756 0.949078
Si Si8 0.040972 0.278898 0.324688
O O1 0.930001 0.094199 0.135142
O O2 0.631615 0.839114 0.806076
O O3 0.812879 0.671879 0.905014
O O4 0.000000 0.000000 0.000000
O O5 0.257852 0.021215 0.502931
O O6 0.645726 0.283034 0.780103
O O7 0.458762 0.012668 0.719444
O O8 0.538656 0.432828 0.862781
O O9 0.348243 0.801981 0.729867
O O10 0.108996 0.704590 0.702307
O O11 0.323209 0.119450 0.877511
O O12 0.500000 0.000000 0.000000
O O13 0.901751 0.835076 0.617261
O O14 0.129148 0.239480 0.771342
O O15 0.032256 0.256828 0.854359
O O16 0.760919 0.469225 0.525394
O O17 0.000000 0.500000 0.000000
O O18 0.500000 0.500000 0.000000
#
# Coordination Sequence:
#
# PCOD9009718 Si02
#       8
#     2   2   2   2   2   2   2   2
#     4  11  24  44  68  93 123 163 209 263 313 367
#     4  11  23  39  62  92 125 165 202 254 307 362
#     4  11  22  40  64  91 127 171 205 253 313 367
#     4   9  22  39  61  87 122 161 203 247 306 362
#     4  12  24  39  64  96 128 163 211 254 310 374
#     4  10  22  43  67  89 121 161 204 256 312 365
#     4  10  21  40  57  87 125 160 204 249 295 360
#     4  10  23  42  62  92 127 164 209 255 309 372
#
# _framework density 19.325728000000002
#
# number of rings (size 3 to 8) (size 9 to 14) (size 15 to 20)
#    0.000    1.500    2.500    2.625    1.750    5.500 
#    0.000    0.000    0.000    0.000    0.000    0.000 
#    0.000    0.000    0.000    0.000    0.000    0.000 
#
# Total GULP energy -89119.963007 kJ/mol
# GULP energy per Si atom -5569.997688 kJ/mol
# Density = 1.928174 g / cm^3
# Si number density = 19.325728 Si / 1000 Ang^3
#
#
#
# Elastic Constant Matrix: (Units=GPa)
#
#
# Indices 1 2 3 4 5 6 
#
# 1 102.8531 20.5951 34.1963 -11.7400 37.1661 1.1964
# 2 20.5951 -45.0837 2.1418 -12.1213 -4.3267 -26.2505
# 3 34.1963 2.1418 104.4515 -15.7149 30.6660 -8.3276
# 4 -11.7400 -12.1213 -15.7149 36.1172 -2.6776 5.3879
# 5 37.1661 -4.3267 30.6660 -2.6776 27.1820 -4.7205
# 6 1.1964 -26.2505 -8.3276 5.3879 -4.7205 23.7832
#
#
#
# Elastic Compliance Matrix: (Units=1/GPa)
#
#
# Indices 1 2 3 4 5 6 
#
# 1 0.016752 0.007180 0.002464 0.006927 -0.023565 0.001698
# 2 0.007180 -0.009604 0.001280 0.000583 -0.015102 -0.013643
# 3 0.002464 0.001280 0.015675 0.006365 -0.019985 0.001369
# 4 0.006927 0.000583 0.006365 0.032989 -0.014675 -0.007862
# 5 -0.023565 -0.015102 -0.019985 -0.014675 0.087392 -0.001810
# 6 0.001698 -0.013643 0.001369 -0.007862 -0.001810 0.028804
#
#
# Mechanical properties :
#
#
# Convention : Reuss Voigt Hill
#
# Bulk Modulus (GPa) = 22.38590 30.67637 26.53113
# Shear Modulus (GPa) = 30.29394 24.43567 27.36480
#
# Velocity S-wave (km/s) = 3.96352 3.55971 3.76703
# Velocity P-wave (km/s) = 5.70566 5.72741 5.71655
#
# Compressibility (1/GPa) = 0.04467098
#
# Stress axis : x y z
#
# Youngs Moduli (GPa) = 59.69593 -104.12255 63.79577
#
# Poissons Ratio (x) = 0.74757 -0.15722
# Poissons Ratio (y) = -0.42860 -0.08166
# Poissons Ratio (z) = -0.14711 0.13329
#
# Static dielectric constant tensor:
#      x y z
#    x 1.727730 -0.014760 0.010940 
#    y -0.014760 1.658150 0.025280 
#    z 0.010940 0.025280 1.664550 
# 
# From -- ./inp_files/85020.got.cif
#   From: 2010.05.17/outbox.cif.g08.bks.cpg/sg2_43_cif.got.tgz:85020.got - 2010.06.03 11:33:40.
