data_PCOD9009416
_publ_section_title
;
Structure prediction by ZEFSAII (Michael W. Deem and Ramdas Pophale) SiO2 
 PCOD9009416
Probable space group: P -1
;
_chemical_formula_sum "Si O2"
_cell_formula_units_Z 14
_cell_length_a 13.851777
_cell_length_b 7.563142
_cell_length_c 19.950512
_cell_angle_alpha 116.875150
_cell_angle_beta 20.335450
_cell_angle_gamma 109.272366
_cell_volume 617.501814
_symmetry_space_group_name_H-M "P -1"
_symmetry_group_IT_number 2
_symmetry_cell_setting 'triclinic'
loop_
_space_group_symop_operation_xyz
x,y,z
-x,-y,-z
loop_
_atom_site_type_symbol
_atom_site_label
_atom_site_fract_x
_atom_site_fract_y
_atom_site_fract_z
Si Si1 0.270094 0.600096 0.607633
Si Si2 0.291379 0.368704 0.086692
Si Si3 0.540382 0.268423 0.286432
Si Si4 0.169195 0.150346 0.249810
Si Si5 0.264313 0.076614 0.318774
Si Si6 0.135530 0.096316 0.791136
Si Si7 0.295453 0.062021 0.534924
O O1 0.500000 0.500000 0.500000
O O2 0.450571 0.505665 0.407848
O O3 0.168504 0.848906 0.721811
O O4 0.964554 0.541662 0.786294
O O5 0.130393 0.327941 0.251263
O O6 0.500000 0.500000 0.000000
O O7 0.480181 0.139526 0.899275
O O8 0.355150 0.208628 0.338586
O O9 0.451277 0.162991 0.393595
O O10 0.863695 0.195242 0.033204
O O11 0.165866 0.210838 0.339191
O O12 0.938420 0.027229 0.364109
O O13 0.500000 0.000000 0.000000
O O14 0.000000 0.000000 0.500000
O O15 0.426415 0.101879 0.640068
O O16 0.134731 0.175112 0.727943
#
# Coordination Sequence:
#
# PCOD9009416 Si02
#       7
#     2   2   2   2   2   2   2
#     4  12  25  43  70 106 143 183 239 293 352 427
#     4  11  24  44  68 101 143 183 235 303 356 415
#     4  12  24  44  73  99 144 186 235 288 360 417
#     4  10  21  39  68  97 135 185 233 286 357 423
#     4  11  21  40  69 101 133 186 238 282 357 430
#     4  11  24  46  69 102 138 189 239 288 349 429
#     4  11  22  42  73  97 141 186 230 292 353 417
#
# _framework density 22.671999
#
# number of rings (size 3 to 8) (size 9 to 14) (size 15 to 20)
#    0.000    0.857    5.714    2.143    2.000    0.000 
#    0.000    8.571    0.000    0.000    0.000    0.000 
#    0.000    0.000    0.000    0.000    0.000    0.000 
#
# Total GULP energy -78094.374258 kJ/mol
# GULP energy per Si atom -5578.169590 kJ/mol
# Density = 2.262040 g / cm^3
# Si number density = 22.671999 Si / 1000 Ang^3
#
#
#
# Elastic Constant Matrix: (Units=GPa)
#
#
# Indices 1 2 3 4 5 6 
#
# 1 179.6635 39.7971 57.8929 -6.5882 -2.8741 11.1784
# 2 39.7971 78.2056 44.0839 -7.3798 3.2930 9.6213
# 3 57.8929 44.0839 157.4212 -6.1521 2.4747 9.1983
# 4 -6.5882 -7.3798 -6.1521 44.3631 6.9659 7.4758
# 5 -2.8741 3.2930 2.4747 6.9659 44.8950 -10.6487
# 6 11.1784 9.6213 9.1983 7.4758 -10.6487 45.0435
#
#
#
# Elastic Compliance Matrix: (Units=1/GPa)
#
#
# Indices 1 2 3 4 5 6 
#
# 1 0.006718 -0.002303 -0.001770 0.000431 0.000445 -0.000780
# 2 -0.002303 0.016710 -0.003486 0.002897 -0.002423 -0.003340
# 3 -0.001770 -0.003486 0.008045 0.000468 -0.000531 -0.000662
# 4 0.000431 0.002897 0.000468 0.025095 -0.005601 -0.006310
# 5 0.000445 -0.002423 -0.000531 -0.005601 0.025131 0.007386
# 6 -0.000780 -0.003340 -0.000662 -0.006310 0.007386 0.026036
#
#
# Mechanical properties :
#
#
# Convention : Reuss Voigt Hill
#
# Bulk Modulus (GPa) = 61.14519 77.64867 69.39693
# Shear Modulus (GPa) = 38.96968 45.09475 42.03221
#
# Velocity S-wave (km/s) = 4.15040 4.46467 4.31040
# Velocity P-wave (km/s) = 7.07077 7.80389 7.44636
#
# Compressibility (1/GPa) = 0.01635452
#
# Stress axis : x y z
#
# Youngs Moduli (GPa) = 148.85520 59.84434 124.30139
#
# Poissons Ratio (x) = 0.13781 0.22005
# Poissons Ratio (y) = 0.34279 0.43333
# Poissons Ratio (z) = 0.26351 0.20862
#
# Static dielectric constant tensor:
#      x y z
#    x 1.930540 -0.034540 -0.022530 
#    y -0.034540 1.913970 -0.008270 
#    z -0.022530 -0.008270 1.899430 
# 
# From -- ./inp_files/597402.got.cif
#   From: 2010.05.17/outbox.cif.g08.bks.cpg/sg2_299_cif.got.tgz:597402.got - 2010.06.03 11:33:40.
