data_PCOD9009106
_publ_section_title
;
Structure prediction by ZEFSAII (Michael W. Deem and Ramdas Pophale) SiO2 
 PCOD9009106
Probable space group: P -1
;
_chemical_formula_sum "Si O2"
_cell_formula_units_Z 16
_cell_length_a 12.655182
_cell_length_b 24.212851
_cell_length_c 7.535186
_cell_angle_alpha 141.457676
_cell_angle_beta 49.239261
_cell_angle_gamma 154.081402
_cell_volume 617.895886
_symmetry_space_group_name_H-M "P -1"
_symmetry_group_IT_number 2
_symmetry_cell_setting 'triclinic'
loop_
_space_group_symop_operation_xyz
x,y,z
-x,-y,-z
loop_
_atom_site_type_symbol
_atom_site_label
_atom_site_fract_x
_atom_site_fract_y
_atom_site_fract_z
Si Si1 0.738474 0.408453 0.543942
Si Si2 0.757871 0.165683 0.499761
Si Si3 0.044735 0.088211 0.459833
Si Si4 0.142851 0.379475 0.301561
Si Si5 0.728792 0.800014 0.866007
Si Si6 0.698912 0.060460 0.804885
Si Si7 0.576424 0.651244 0.015563
Si Si8 0.470874 0.134128 0.944339
O O1 0.540655 0.226225 0.275416
O O2 0.739001 0.469340 0.519184
O O3 0.669491 0.438079 0.853674
O O4 0.000000 0.500000 0.500000
O O5 0.739064 0.050037 0.254883
O O6 0.973617 0.299022 0.460830
O O7 0.477624 0.037302 0.415262
O O8 0.729834 0.219720 0.826712
O O9 0.180598 0.199875 0.414307
O O10 0.221489 0.187790 0.684423
O O11 0.806973 0.019413 0.606086
O O12 0.341486 0.405776 0.174611
O O13 0.945361 0.246334 0.031591
O O14 0.957644 0.952002 0.121502
O O15 0.577666 0.666442 0.841484
O O16 0.603689 0.827625 0.015151
O O17 0.500000 0.000000 0.000000
#
# Coordination Sequence:
#
# PCOD9009106 Si02
#       8
#     2   2   2   2   2   2   2   2
#     4  12  27  48  71  98 140 192 242 288 354 425
#     4  10  22  41  68 104 139 178 233 294 360 413
#     4  10  21  39  67 103 142 174 232 286 351 417
#     4  10  24  43  70 100 142 189 234 283 355 425
#     4  11  23  39  69 105 141 182 229 295 355 415
#     4   9  18  37  66  99 135 180 222 283 346 410
#     4  11  25  44  70  99 143 188 236 290 353 420
#     4  11  24  43  70 103 145 178 236 297 349 422
#
# _framework density 25.894328999999999
#
# number of rings (size 3 to 8) (size 9 to 14) (size 15 to 20)
#    0.000    1.500    2.500    1.500    5.250    3.500 
#    0.000    0.625    0.000    0.000    0.000    0.000 
#    0.000    0.000    0.000    0.000    0.000    0.000 
#
# Total GULP energy -89318.893754 kJ/mol
# GULP energy per Si atom -5582.430860 kJ/mol
# Density = 2.583539 g / cm^3
# Si number density = 25.894329 Si / 1000 Ang^3
#
#
#
# Elastic Constant Matrix: (Units=GPa)
#
#
# Indices 1 2 3 4 5 6 
#
# 1 128.4206 39.9307 41.6899 -27.1544 -26.5925 -2.2813
# 2 39.9307 98.9392 49.4633 -25.8156 -9.5629 -11.4798
# 3 41.6899 49.4633 125.1146 -29.3506 -19.7630 -5.5780
# 4 -27.1544 -25.8156 -29.3506 52.0894 8.4839 4.9512
# 5 -26.5925 -9.5629 -19.7630 8.4839 50.3878 -9.9570
# 6 -2.2813 -11.4798 -5.5780 4.9512 -9.9570 44.5344
#
#
#
# Elastic Compliance Matrix: (Units=1/GPa)
#
#
# Indices 1 2 3 4 5 6 
#
# 1 0.010388 -0.002423 -0.001161 0.002846 0.004162 0.000376
# 2 -0.002423 0.014215 -0.003938 0.003339 -0.000166 0.002639
# 3 -0.001161 -0.003938 0.011126 0.003244 0.002562 0.000531
# 4 0.002846 0.003339 0.003244 0.024476 -0.001016 -0.001535
# 5 0.004162 -0.000166 0.002562 -0.001016 0.024384 0.006056
# 6 0.000376 0.002639 0.000531 -0.001535 0.006056 0.024745
#
#
# Mechanical properties :
#
#
# Convention : Reuss Voigt Hill
#
# Bulk Modulus (GPa) = 48.34629 68.29359 58.31994
# Shear Modulus (GPa) = 38.08852 44.16167 41.12509
#
# Velocity S-wave (km/s) = 3.83942 4.13420 3.98953
# Velocity P-wave (km/s) = 6.19403 7.01570 6.61763
#
# Compressibility (1/GPa) = 0.02068411
#
# Stress axis : x y z
#
# Youngs Moduli (GPa) = 96.26731 70.34733 89.88017
#
# Poissons Ratio (x) = 0.17046 0.10440
# Poissons Ratio (y) = 0.23327 0.35392
# Poissons Ratio (z) = 0.11181 0.27701
#
# Static dielectric constant tensor:
#      x y z
#    x 2.143030 -0.014200 0.090580 
#    y -0.014200 2.142540 0.073310 
#    z 0.090580 0.073310 2.385650 
# 
# From -- ./inp_files/284360.got.cif
#   From: 2010.05.17/outbox.cif.g08.bks.cpg/sg2_143_cif.got.tgz:284360.got - 2010.06.03 11:33:40.
