data_PCOD9009147
_publ_section_title
;
Structure prediction by ZEFSAII (Michael W. Deem and Ramdas Pophale) SiO2 
 PCOD9009147
Probable space group: P -1
;
_chemical_formula_sum "Si O2"
_cell_formula_units_Z 14
_cell_length_a 9.076367
_cell_length_b 14.853519
_cell_length_c 10.024000
_cell_angle_alpha 144.213009
_cell_angle_beta 64.562088
_cell_angle_gamma 132.871925
_cell_volume 555.050048
_symmetry_space_group_name_H-M "P -1"
_symmetry_group_IT_number 2
_symmetry_cell_setting 'triclinic'
loop_
_space_group_symop_operation_xyz
x,y,z
-x,-y,-z
loop_
_atom_site_type_symbol
_atom_site_label
_atom_site_fract_x
_atom_site_fract_y
_atom_site_fract_z
Si Si1 0.407509 0.516396 0.921510
Si Si2 0.411072 0.002345 0.195597
Si Si3 0.138255 0.238199 0.337806
Si Si4 0.126327 0.719175 0.656353
Si Si5 0.890801 0.924971 0.595391
Si Si6 0.526996 0.313450 0.164025
Si Si7 0.372363 0.803464 0.404437
O O1 0.281157 0.308522 0.647948
O O2 0.544611 0.666244 0.928149
O O3 0.500000 0.500000 0.000000
O O4 0.294721 0.606758 0.121130
O O5 0.640493 0.147806 0.207525
O O6 0.199130 0.961745 0.189172
O O7 0.458334 0.131722 0.467557
O O8 0.405042 0.823020 0.028963
O O9 0.001821 0.089615 0.334717
O O10 0.326463 0.227110 0.229288
O O11 0.275800 0.471852 0.601882
O O12 0.013888 0.211465 0.220227
O O13 0.185945 0.743359 0.503641
O O14 0.000000 0.500000 0.500000
O O15 0.000000 0.000000 0.500000
O O16 0.500000 0.000000 0.500000
#
# Coordination Sequence:
#
# PCOD9009147 Si02
#       7
#     2   2   2   2   2   2   2
#     4  11  20  38  67  94 128 176 215 272 327 387
#     4  10  23  43  66  92 129 173 222 269 327 395
#     4  10  25  43  64  95 137 170 221 272 334 394
#     4  10  24  41  67  97 134 172 222 269 324 398
#     4  11  26  43  66 102 134 171 223 276 336 397
#     4  10  23  41  68  93 132 177 216 274 335 387
#     4  10  21  39  67  92 126 171 224 268 316 381
#
# _framework density 25.222949
#
# number of rings (size 3 to 8) (size 9 to 14) (size 15 to 20)
#    0.857    0.857    2.857    0.000   10.000    3.429 
#    2.571    2.857    0.000    0.000    0.000    0.000 
#    0.000    0.000    0.000    0.000    0.000    0.000 
#
# Total GULP energy -77986.219628 kJ/mol
# GULP energy per Si atom -5570.444259 kJ/mol
# Density = 2.516554 g / cm^3
# Si number density = 25.222949 Si / 1000 Ang^3
#
#
#
# Elastic Constant Matrix: (Units=GPa)
#
#
# Indices 1 2 3 4 5 6 
#
# 1 121.0550 52.4403 30.5218 20.0429 -14.3938 -15.0506
# 2 52.4403 142.3271 23.1105 19.1760 -19.8039 -18.0681
# 3 30.5218 23.1105 125.1233 14.4527 -23.5662 6.9742
# 4 20.0429 19.1760 14.4527 37.7913 -0.4483 -6.2403
# 5 -14.3938 -19.8039 -23.5662 -0.4483 42.8158 1.8347
# 6 -15.0506 -18.0681 6.9742 -6.2403 1.8347 38.9899
#
#
#
# Elastic Compliance Matrix: (Units=1/GPa)
#
#
# Indices 1 2 3 4 5 6 
#
# 1 0.010918 -0.002793 -0.001667 -0.003286 0.001314 0.002631
# 2 -0.002793 0.009215 -0.000303 -0.002599 0.003014 0.002689
# 3 -0.001667 -0.000303 0.009933 -0.003250 0.004874 -0.003310
# 4 -0.003286 -0.002599 -0.003250 0.031263 -0.003909 0.003296
# 5 0.001314 0.003014 0.004874 -0.003909 0.027873 -0.000905
# 6 0.002631 0.002689 -0.003310 0.003296 -0.000905 0.029071
#
#
# Mechanical properties :
#
#
# Convention : Reuss Voigt Hill
#
# Bulk Modulus (GPa) = 48.68277 66.73894 57.71086
# Shear Modulus (GPa) = 37.13469 42.74825 39.94147
#
# Velocity S-wave (km/s) = 3.84116 4.12128 3.98369
# Velocity P-wave (km/s) = 6.24625 7.01168 6.64000
#
# Compressibility (1/GPa) = 0.02054115
#
# Stress axis : x y z
#
# Youngs Moduli (GPa) = 91.59069 108.51746 100.67879
#
# Poissons Ratio (x) = 0.30304 0.16784
# Poissons Ratio (y) = 0.25577 0.03048
# Poissons Ratio (z) = 0.15269 0.03285
#
# Static dielectric constant tensor:
#      x y z
#    x 2.038320 -0.061910 -0.015770 
#    y -0.061910 2.016220 -0.133440 
#    z -0.015770 -0.133440 2.089280 
# 
# From -- ./inp_files/399910.got.cif
#   From: 2010.05.17/outbox.cif.g08.bks.cpg/sg2_200_cif.got.tgz:399910.got - 2010.06.03 11:33:40.
