data_PCOD9009153
_publ_section_title
;
Structure prediction by ZEFSAII (Michael W. Deem and Ramdas Pophale) SiO2 
 PCOD9009153
Probable space group: P -1
;
_chemical_formula_sum "Si O2"
_cell_formula_units_Z 13
_cell_length_a 9.222575
_cell_length_b 10.328816
_cell_length_c 13.823045
_cell_angle_alpha 123.636432
_cell_angle_beta 31.658556
_cell_angle_gamma 111.981968
_cell_volume 560.987650
_symmetry_space_group_name_H-M "P -1"
_symmetry_group_IT_number 2
_symmetry_cell_setting 'triclinic'
loop_
_space_group_symop_operation_xyz
x,y,z
-x,-y,-z
loop_
_atom_site_type_symbol
_atom_site_label
_atom_site_fract_x
_atom_site_fract_y
_atom_site_fract_z
Si Si1 0.076382 0.167427 0.496152
Si Si2 0.264089 0.928821 0.961046
Si Si3 0.230533 0.526197 0.090686
Si Si4 0.147823 0.935124 0.593021
Si Si5 0.000000 0.500000 0.000000
Si Si6 0.561934 0.779228 0.463192
Si Si7 0.972460 0.225308 0.117139
O O1 0.404617 0.139504 0.267406
O O2 0.968618 0.309192 0.690067
O O3 0.890238 0.196496 0.516137
O O4 0.000000 0.000000 0.500000
O O5 0.063008 0.808576 0.991167
O O6 0.153329 0.987664 0.153790
O O7 0.166821 0.076170 0.001512
O O8 0.236811 0.520397 0.966901
O O9 0.088499 0.378557 0.132748
O O10 0.500000 0.500000 0.000000
O O11 0.353579 0.853556 0.525905
O O12 0.283185 0.079065 0.538142
O O13 0.760026 0.619500 0.246333
O O14 0.347631 0.751034 0.655272
#
# Coordination Sequence:
#
# PCOD9009153 Si02
#       7
#     2   2   2   2   1   2   2
#     4  12  24  40  63  94 129 170 221 272 325 387
#     4  10  21  39  67  93 123 171 218 266 323 390
#     4  12  27  45  67  96 134 174 215 272 328 384
#     4  10  21  41  64  91 129 169 217 268 322 388
#     4  12  24  42  66  96 128 168 218 262 320 386
#     4  10  22  40  66  94 126 172 216 266 326 387
#     4  10  22  42  64  93 130 168 214 267 330 386
#
# _framework density 23.173413
#
# number of rings (size 3 to 8) (size 9 to 14) (size 15 to 20)
#    0.000    1.231    0.000    6.000    0.000    8.615 
#    0.000   11.538    0.000    0.000    0.000    0.000 
#    0.000    0.000    0.000    0.000    0.000    0.000 
#
# Total GULP energy -72408.268157 kJ/mol
# GULP energy per Si atom -5569.866781 kJ/mol
# Density = 2.312067 g / cm^3
# Si number density = 23.173413 Si / 1000 Ang^3
#
#
#
# Elastic Constant Matrix: (Units=GPa)
#
#
# Indices 1 2 3 4 5 6 
#
# 1 137.4939 34.3908 20.9113 3.7537 7.7358 43.2972
# 2 34.3908 76.0429 17.9561 2.2437 3.8488 39.1649
# 3 20.9113 17.9561 100.3082 15.3335 0.7169 14.3479
# 4 3.7537 2.2437 15.3335 31.6007 8.5420 8.2811
# 5 7.7358 3.8488 0.7169 8.5420 43.1896 13.4813
# 6 43.2972 39.1649 14.3479 8.2811 13.4813 37.1053
#
#
#
# Elastic Compliance Matrix: (Units=1/GPa)
#
#
# Indices 1 2 3 4 5 6 
#
# 1 0.012926 0.006084 -0.001038 0.003631 0.003702 -0.023258
# 2 0.006084 0.035263 -0.001878 0.007914 0.009466 -0.048798
# 3 -0.001038 -0.001878 0.011431 -0.005541 0.001417 -0.000504
# 4 0.003631 0.007914 -0.005541 0.038947 -0.003375 -0.017913
# 5 0.003702 0.009466 0.001417 -0.003375 0.030109 -0.025045
# 6 -0.023258 -0.048798 -0.000504 -0.017913 -0.025045 0.118888
#
#
# Mechanical properties :
#
#
# Convention : Reuss Voigt Hill
#
# Bulk Modulus (GPa) = 15.16208 51.15129 33.15669
# Shear Modulus (GPa) = 18.99596 38.41825 28.70710
#
# Velocity S-wave (km/s) = 2.86620 4.07610 3.52347
# Velocity P-wave (km/s) = 4.18456 6.65387 5.55808
#
# Compressibility (1/GPa) = 0.06595399
#
# Stress axis : x y z
#
# Youngs Moduli (GPa) = 77.36423 28.35833 87.48202
#
# Poissons Ratio (x) = -0.17252 0.09084
# Poissons Ratio (y) = -0.47065 0.16429
# Poissons Ratio (z) = 0.08033 0.05326
#
# Static dielectric constant tensor:
#      x y z
#    x 2.016040 -0.090860 0.019410 
#    y -0.090860 1.965530 0.004310 
#    z 0.019410 0.004310 1.878160 
# 
# From -- ./inp_files/152250.got.cif
#   From: 2010.05.17/outbox.cif.g08.bks.cpg/sg2_77_cif.got.tgz:152250.got - 2010.06.03 11:33:40.
