data_PCOD9009287
_publ_section_title
;
Structure prediction by ZEFSAII (Michael W. Deem and Ramdas Pophale) SiO2 
 PCOD9009287
Probable space group: P -1
;
_chemical_formula_sum "Si O2"
_cell_formula_units_Z 14
_cell_length_a 8.830584
_cell_length_b 8.846087
_cell_length_c 10.486573
_cell_angle_alpha 69.936957
_cell_angle_beta 128.674858
_cell_angle_gamma 96.635318
_cell_volume 595.240907
_symmetry_space_group_name_H-M "P -1"
_symmetry_group_IT_number 2
_symmetry_cell_setting 'triclinic'
loop_
_space_group_symop_operation_xyz
x,y,z
-x,-y,-z
loop_
_atom_site_type_symbol
_atom_site_label
_atom_site_fract_x
_atom_site_fract_y
_atom_site_fract_z
Si Si1 0.506751 0.615263 0.094821
Si Si2 0.136590 0.158693 0.052432
Si Si3 0.914743 0.682961 0.371005
Si Si4 0.234299 0.909180 0.409449
Si Si5 0.286610 0.851796 0.088648
Si Si6 0.611007 0.648551 0.712529
Si Si7 0.695882 0.792866 0.471544
O O1 0.718970 0.672687 0.190138
O O2 0.344990 0.771330 0.003412
O O3 0.483165 0.502392 0.239730
O O4 0.500000 0.500000 0.000000
O O5 0.252256 0.302572 0.115528
O O6 0.188263 0.024457 0.230560
O O7 0.218925 0.046544 0.008657
O O8 0.904360 0.214737 0.931804
O O9 0.846091 0.755952 0.448625
O O10 0.000000 0.500000 0.500000
O O11 0.074129 0.788079 0.371967
O O12 0.440602 0.796133 0.553656
O O13 0.254823 0.039553 0.492107
O O14 0.481040 0.813476 0.287827
O O15 0.718454 0.650259 0.632300
#
# Coordination Sequence:
#
# PCOD9009287 Si02
#       7
#     2   2   2   2   2   2   2
#     4  11  27  45  60  91 138 174 212 260 324 383
#     4  10  21  39  68 100 126 164 218 264 320 379
#     4  11  24  41  64  95 130 172 212 259 321 384
#     4  11  20  41  66 100 128 161 211 267 320 378
#     4  10  21  40  64  96 130 164 212 264 318 380
#     4  11  21  42  69  92 127 169 210 272 313 378
#     4  10  21  41  67  99 126 160 217 267 320 372
#
# _framework density 23.519886
#
# number of rings (size 3 to 8) (size 9 to 14) (size 15 to 20)
#    0.000    1.429    4.286    1.286    0.000    8.571 
#    2.571    2.143    0.000    0.000    0.000    0.000 
#    0.000    0.000    0.000    0.000    0.000    0.000 
#
# Total GULP energy -78161.649389 kJ/mol
# GULP energy per Si atom -5582.974956 kJ/mol
# Density = 2.346635 g / cm^3
# Si number density = 23.519886 Si / 1000 Ang^3
#
#
#
# Elastic Constant Matrix: (Units=GPa)
#
#
# Indices 1 2 3 4 5 6 
#
# 1 68.1804 37.9768 18.6286 15.1823 11.7347 -4.7914
# 2 37.9768 96.4632 33.8524 25.4350 5.3080 11.7169
# 3 18.6286 33.8524 37.1532 16.9138 4.8912 -0.8900
# 4 15.1823 25.4350 16.9138 38.9096 1.0821 -5.5156
# 5 11.7347 5.3080 4.8912 1.0821 36.4981 4.8424
# 6 -4.7914 11.7169 -0.8900 -5.5156 4.8424 60.5645
#
#
#
# Elastic Compliance Matrix: (Units=1/GPa)
#
#
# Indices 1 2 3 4 5 6 
#
# 1 0.020827 -0.006914 -0.002431 -0.001933 -0.005736 0.003232
# 2 -0.006914 0.019234 -0.011941 -0.005458 0.001863 -0.005089
# 3 -0.002431 -0.011941 0.044064 -0.010005 -0.003372 0.002124
# 4 -0.001933 -0.005458 -0.010005 0.034882 0.001213 0.003836
# 5 -0.005736 0.001863 -0.003372 0.001213 0.029804 -0.003136
# 6 0.003232 -0.005089 0.002124 0.003836 -0.003136 0.018383
#
#
# Mechanical properties :
#
#
# Convention : Reuss Voigt Hill
#
# Bulk Modulus (GPa) = 24.06489 42.52359 33.29424
# Shear Modulus (GPa) = 22.35975 34.61704 28.48839
#
# Velocity S-wave (km/s) = 3.08665 3.84059 3.48407
# Velocity P-wave (km/s) = 4.79136 6.14703 5.51104
#
# Compressibility (1/GPa) = 0.04155432
#
# Stress axis : x y z
#
# Youngs Moduli (GPa) = 48.01485 51.99160 22.69414
#
# Poissons Ratio (x) = 0.35945 0.05516
# Poissons Ratio (y) = 0.33196 0.27099
# Poissons Ratio (z) = 0.11670 0.62084
#
# Static dielectric constant tensor:
#      x y z
#    x 1.950210 -0.060820 -0.030570 
#    y -0.060820 1.932380 0.045580 
#    z -0.030570 0.045580 1.924250 
# 
# From -- ./inp_files/209377.got.cif
#   From: 2010.05.17/outbox.cif.g08.bks.cpg/sg2_105_cif.got.tgz:209377.got - 2010.06.03 11:33:40.
