data_PCOD9009422
_publ_section_title
;
Structure prediction by ZEFSAII (Michael W. Deem and Ramdas Pophale) SiO2 
 PCOD9009422
Probable space group: P -1
;
_chemical_formula_sum "Si O2"
_cell_formula_units_Z 14
_cell_length_a 9.272183
_cell_length_b 14.589752
_cell_length_c 9.327972
_cell_angle_alpha 151.785291
_cell_angle_beta 58.446387
_cell_angle_gamma 124.359506
_cell_volume 491.398091
_symmetry_space_group_name_H-M "P -1"
_symmetry_group_IT_number 2
_symmetry_cell_setting 'triclinic'
loop_
_space_group_symop_operation_xyz
x,y,z
-x,-y,-z
loop_
_atom_site_type_symbol
_atom_site_label
_atom_site_fract_x
_atom_site_fract_y
_atom_site_fract_z
Si Si1 0.442716 0.718747 0.881851
Si Si2 0.047176 0.939358 0.550104
Si Si3 0.746579 0.379214 0.895294
Si Si4 0.401035 0.148343 0.594958
Si Si5 0.152136 0.168392 0.229931
Si Si6 0.915883 0.413958 0.575369
Si Si7 0.570068 0.219530 0.335203
O O1 0.337503 0.558214 0.830363
O O2 0.389230 0.924265 0.233053
O O3 0.652842 0.788257 0.869532
O O4 0.394634 0.654345 0.654689
O O5 0.115183 0.742434 0.285298
O O6 0.878112 0.907092 0.694082
O O7 0.221557 0.122207 0.740098
O O8 0.000000 0.000000 0.500000
O O9 0.570346 0.226967 0.712683
O O10 0.832768 0.503961 0.881286
O O11 0.440888 0.271432 0.594488
O O12 0.070858 0.350873 0.486768
O O13 0.000000 0.000000 0.000000
O O14 0.746894 0.246509 0.372801
O O15 0.000000 0.500000 0.500000
O O16 0.500000 0.000000 0.000000
#
# Coordination Sequence:
#
# PCOD9009422 Si02
#       7
#     2   2   2   2   2   2   2
#     4  10  17  29  49  77 104 134 177 228 265 305
#     4  10  18  27  45  77 110 136 170 221 269 310
#     4   9  18  33  51  70 104 147 177 206 267 334
#     4   9  16  30  47  71 107 145 173 208 266 327
#     4  11  20  32  54  84 109 135 181 232 264 304
#     4  10  22  40  57  76 109 150 181 214 270 331
#     4   9  17  31  55  81 104 137 181 221 261 311
#
# _framework density 28.490141000000001
#
# number of rings (size 3 to 8) (size 9 to 14) (size 15 to 20)
#    0.000    2.286    0.000    6.857    0.000    3.429 
#    0.000    2.143    0.000    0.000    0.000    0.000 
#    0.000    0.000    0.000    0.000    0.000    0.000 
#
# Total GULP energy -78144.793510 kJ/mol
# GULP energy per Si atom -5581.770965 kJ/mol
# Density = 2.842530 g / cm^3
# Si number density = 28.490141 Si / 1000 Ang^3
#
#
#
# Elastic Constant Matrix: (Units=GPa)
#
#
# Indices 1 2 3 4 5 6 
#
# 1 151.3891 57.6919 41.8665 -21.4103 26.8371 9.6904
# 2 57.6919 239.3353 62.3845 -75.6273 -1.7167 -8.6643
# 3 41.8665 62.3845 70.1679 -35.4935 11.9526 -6.2668
# 4 -21.4103 -75.6273 -35.4935 69.6138 1.8868 13.0216
# 5 26.8371 -1.7167 11.9526 1.8868 52.0685 -14.0763
# 6 9.6904 -8.6643 -6.2668 13.0216 -14.0763 56.9564
#
#
#
# Elastic Compliance Matrix: (Units=1/GPa)
#
#
# Indices 1 2 3 4 5 6 
#
# 1 0.009268 -0.001346 -0.003644 0.000314 -0.004935 -0.003474
# 2 -0.001346 0.007075 -0.002772 0.005821 0.001354 0.000004
# 3 -0.003644 -0.002772 0.023613 0.008014 -0.003926 -0.000006
# 4 0.000314 0.005821 0.008014 0.025967 -0.004171 -0.005253
# 5 -0.004935 0.001354 -0.003926 -0.004171 0.024936 0.007730
# 6 -0.003474 0.000004 -0.000006 -0.005253 0.007730 0.021260
#
#
# Mechanical properties :
#
#
# Convention : Reuss Voigt Hill
#
# Bulk Modulus (GPa) = 40.93365 87.19757 64.06561
# Shear Modulus (GPa) = 36.82282 55.65769 46.24026
#
# Velocity S-wave (km/s) = 3.59900 4.42472 4.03305
# Velocity P-wave (km/s) = 5.62755 7.53505 6.65004
#
# Compressibility (1/GPa) = 0.02442978
#
# Stress axis : x y z
#
# Youngs Moduli (GPa) = 107.90013 141.35240 42.35036
#
# Poissons Ratio (x) = 0.19031 0.15431
# Poissons Ratio (y) = 0.14527 0.11742
# Poissons Ratio (z) = 0.39316 0.39190
#
# Static dielectric constant tensor:
#      x y z
#    x 2.203650 -0.053600 -0.051240 
#    y -0.053600 2.400080 0.023310 
#    z -0.051240 0.023310 2.341640 
# 
# From -- ./inp_files/198310.got.cif
#   From: 2010.05.17/outbox.cif.g08.bks.cpg/sg2_100_cif.got.tgz:198310.got - 2010.06.03 11:33:40.
