data_PCOD9009042
_publ_section_title
;
Structure prediction by ZEFSAII (Michael W. Deem and Ramdas Pophale) SiO2 
 PCOD9009042
Probable space group: P -1
;
_chemical_formula_sum "Si O2"
_cell_formula_units_Z 16
_cell_length_a 11.674194
_cell_length_b 9.092709
_cell_length_c 15.989739
_cell_angle_alpha 45.920383
_cell_angle_beta 37.455305
_cell_angle_gamma 64.379578
_cell_volume 713.073832
_symmetry_space_group_name_H-M "P -1"
_symmetry_group_IT_number 2
_symmetry_cell_setting 'triclinic'
loop_
_space_group_symop_operation_xyz
x,y,z
-x,-y,-z
loop_
_atom_site_type_symbol
_atom_site_label
_atom_site_fract_x
_atom_site_fract_y
_atom_site_fract_z
Si Si1 0.093522 0.094237 0.223386
Si Si2 0.314644 0.132319 0.718210
Si Si3 0.117963 0.603986 0.252403
Si Si4 0.340060 0.787242 0.203933
Si Si5 0.297956 0.927373 0.440330
Si Si6 0.304484 0.319140 0.161861
Si Si7 0.681630 0.455357 0.536458
Si Si8 0.113332 0.059961 0.029433
O O1 0.253718 0.268153 0.114932
O O2 0.111055 0.128686 0.100028
O O3 0.880476 0.083037 0.388937
O O4 0.150006 0.874244 0.297972
O O5 0.486342 0.017463 0.665679
O O6 0.383783 0.349783 0.539691
O O7 0.254754 0.189779 0.824112
O O8 0.109984 0.992071 0.853958
O O9 0.263935 0.625374 0.236774
O O10 0.138487 0.416782 0.255753
O O11 0.889725 0.560346 0.420590
O O12 0.171928 0.835823 0.086423
O O13 0.429459 0.691958 0.266897
O O14 0.500000 0.000000 0.000000
O O15 0.286061 0.701092 0.493065
O O16 0.297035 0.101294 0.300601
O O17 0.500000 0.500000 0.000000
#
# Coordination Sequence:
#
# PCOD9009042 Si02
#       8
#     2   2   2   2   2   2   2   2
#     4  11  23  43  70 101 135 173 219 286 349 380
#     4  10  23  44  71  98 131 189 232 263 336 400
#     4  10  21  39  66  98 131 172 221 276 343 392
#     4  11  23  40  68 103 135 172 226 285 333 400
#     4  12  24  42  67  98 143 175 222 280 339 404
#     4  12  23  39  66 100 138 175 213 284 355 398
#     4  11  22  41  68  94 133 180 228 269 326 415
#     4   9  22  45  73  97 135 173 233 284 317 406
#
# _framework density 22.438068999999999
#
# number of rings (size 3 to 8) (size 9 to 14) (size 15 to 20)
#    0.000    1.250    2.500    3.375    3.500    2.500 
#    0.000    0.625    0.000    0.000    0.000    0.000 
#    0.000    0.000    0.000    0.000    0.000    0.000 
#
# Total GULP energy -89412.482625 kJ/mol
# GULP energy per Si atom -5588.280164 kJ/mol
# Density = 2.238700 g / cm^3
# Si number density = 22.438069 Si / 1000 Ang^3
#
#
#
# Elastic Constant Matrix: (Units=GPa)
#
#
# Indices 1 2 3 4 5 6 
#
# 1 150.5303 38.8532 44.9060 19.5127 8.2124 12.6253
# 2 38.8532 75.1929 10.6800 11.9306 2.6196 8.0146
# 3 44.9060 10.6800 97.4257 10.8566 13.6312 -6.9368
# 4 19.5127 11.9306 10.8566 25.9084 -3.9207 -2.9431
# 5 8.2124 2.6196 13.6312 -3.9207 37.7966 5.0701
# 6 12.6253 8.0146 -6.9368 -2.9431 5.0701 35.6699
#
#
#
# Elastic Compliance Matrix: (Units=1/GPa)
#
#
# Indices 1 2 3 4 5 6 
#
# 1 0.009522 -0.003253 -0.003712 -0.004610 -0.000491 -0.003672
# 2 -0.003253 0.016140 0.000243 -0.005506 -0.000697 -0.002783
# 3 -0.003712 0.000243 0.013289 -0.003141 -0.004903 0.004281
# 4 -0.004610 -0.005506 -0.003141 0.047535 0.006747 0.005221
# 5 -0.000491 -0.000697 -0.004903 0.006747 0.029655 -0.004282
# 6 -0.003672 -0.002783 0.004281 0.005221 -0.004282 0.031832
#
#
# Mechanical properties :
#
#
# Convention : Reuss Voigt Hill
#
# Bulk Modulus (GPa) = 39.20304 56.89190 48.04747
# Shear Modulus (GPa) = 29.42575 35.12230 32.27403
#
# Velocity S-wave (km/s) = 3.62528 3.96068 3.79669
# Velocity P-wave (km/s) = 5.91888 6.80633 6.37806
#
# Compressibility (1/GPa) = 0.02550823
#
# Stress axis : x y z
#
# Youngs Moduli (GPa) = 105.01572 61.95747 75.24893
#
# Poissons Ratio (x) = 0.20157 0.27929
# Poissons Ratio (y) = 0.34165 -0.01830
# Poissons Ratio (z) = 0.38978 -0.01507
#
# Static dielectric constant tensor:
#      x y z
#    x 1.870980 0.011610 -0.024160 
#    y 0.011610 1.844140 0.038280 
#    z -0.024160 0.038280 1.934320 
# 
# From -- ./inp_files/515017.got.cif
#   From: 2010.05.17/outbox.cif.g08.bks.cpg/sg2_258_cif.got.tgz:515017.got - 2010.06.03 11:33:40.
