data_PCOD9009859
_publ_section_title
;
Structure prediction by ZEFSAII (Michael W. Deem and Ramdas Pophale) SiO2 
 PCOD9009859
Probable space group: P -1
;
_chemical_formula_sum "Si O2"
_cell_formula_units_Z 16
_cell_length_a 24.972651
_cell_length_b 5.522312
_cell_length_c 5.257433
_cell_angle_alpha 61.022428
_cell_angle_beta 104.716841
_cell_angle_gamma 95.998563
_cell_volume 613.311829
_symmetry_space_group_name_H-M "P -1"
_symmetry_group_IT_number 2
_symmetry_cell_setting 'triclinic'
loop_
_space_group_symop_operation_xyz
x,y,z
-x,-y,-z
loop_
_atom_site_type_symbol
_atom_site_label
_atom_site_fract_x
_atom_site_fract_y
_atom_site_fract_z
Si Si1 0.602341 0.331634 0.011715
Si Si2 0.071285 0.194313 0.677870
Si Si3 0.434569 0.013130 0.361128
Si Si4 0.834769 0.890310 0.563731
Si Si5 0.808262 0.458935 0.119542
Si Si6 0.703674 0.301657 0.812456
Si Si7 0.724191 0.727763 0.249144
Si Si8 0.040536 0.646036 0.786252
O O1 0.581846 0.655535 0.842303
O O2 0.666625 0.341311 0.998974
O O3 0.576987 0.159423 0.826937
O O4 0.592286 0.152741 0.346610
O O5 0.117327 0.251135 0.484709
O O6 0.072834 0.409659 0.795232
O O7 0.004449 0.217148 0.530055
O O8 0.076378 0.862921 0.876938
O O9 0.500000 0.000000 0.500000
O O10 0.770934 0.877511 0.399640
O O11 0.846325 0.213449 0.399272
O O12 0.830613 0.750034 0.902363
O O13 0.763362 0.526782 0.240798
O O14 0.769650 0.353107 0.894662
O O15 0.685431 0.542519 0.471458
O O16 0.697998 0.973991 0.920986
O O17 0.000000 0.500000 0.000000
#
# Coordination Sequence:
#
# PCOD9009859 Si02
#       8
#     2   2   2   2   2   2   2   2
#     4  12  26  44  75 105 140 195 242 293 368 427
#     4  10  23  39  61  90 121 152 217 246 324 387
#     4  12  26  47  71 106 148 189 244 304 359 425
#     4  10  23  38  58  94 114 168 203 260 318 404
#     4  10  22  40  61  87 129 159 213 263 332 378
#     4  10  23  38  62  94 127 169 225 275 330 407
#     4  10  21  40  60  88 128 164 210 274 331 387
#     4  10  22  42  61  89 118 162 195 273 312 373
#
# _framework density 26.087869000000001
#
# number of rings (size 3 to 8) (size 9 to 14) (size 15 to 20)
#    0.000    1.500    0.000    3.750    7.000    0.000 
#    0.000    0.000    0.000    0.000    0.000    0.000 
#    0.000    0.000    0.000    0.000    0.000    0.000 
#
# Total GULP energy -89265.941735 kJ/mol
# GULP energy per Si atom -5579.121358 kJ/mol
# Density = 2.602849 g / cm^3
# Si number density = 26.087869 Si / 1000 Ang^3
#
#
#
# Elastic Constant Matrix: (Units=GPa)
#
#
# Indices 1 2 3 4 5 6 
#
# 1 90.9119 24.0191 24.2804 -14.3994 -8.5160 -3.1221
# 2 24.0191 161.8781 70.6546 -35.9393 -4.3099 -7.8519
# 3 24.2804 70.6546 142.7407 -23.2701 -29.6794 5.1977
# 4 -14.3994 -35.9393 -23.2701 37.8772 0.3083 1.4805
# 5 -8.5160 -4.3099 -29.6794 0.3083 54.5130 -0.1203
# 6 -3.1221 -7.8519 5.1977 1.4805 -0.1203 46.6679
#
#
#
# Elastic Compliance Matrix: (Units=1/GPa)
#
#
# Indices 1 2 3 4 5 6 
#
# 1 0.012096 -0.000526 -0.000993 0.003451 0.001289 0.000725
# 2 -0.000526 0.009403 -0.003923 0.006254 -0.001506 0.001781
# 3 -0.000993 -0.003923 0.010711 0.002514 0.005347 -0.001985
# 4 0.003451 0.006254 0.002514 0.035178 0.002203 -0.000107
# 5 0.001289 -0.001506 0.005347 0.002203 0.021324 -0.000778
# 6 0.000725 0.001781 -0.001985 -0.000107 -0.000778 0.021999
#
#
# Mechanical properties :
#
#
# Convention : Reuss Voigt Hill
#
# Bulk Modulus (GPa) = 46.89279 70.38209 58.63744
# Shear Modulus (GPa) = 38.84934 46.25006 42.54970
#
# Velocity S-wave (km/s) = 3.86317 4.21510 4.04296
# Velocity P-wave (km/s) = 6.15733 7.12228 6.65731
#
# Compressibility (1/GPa) = 0.02132524
#
# Stress axis : x y z
#
# Youngs Moduli (GPa) = 82.67182 106.35272 93.36537
#
# Poissons Ratio (x) = 0.05591 0.09272
# Poissons Ratio (y) = 0.04346 0.36629
# Poissons Ratio (z) = 0.08210 0.41725
#
# Static dielectric constant tensor:
#      x y z
#    x 1.847720 0.002650 -0.054740 
#    y 0.002650 2.146400 -0.052420 
#    z -0.054740 -0.052420 2.062780 
# 
# From -- ./inp_files/14584.got.cif
#   From: 2010.05.17/outbox.cif.g08.bks.cpg/sg2_8_cif.got.tgz:14584.got - 2010.06.03 11:33:40.
