data_PCOD9009995
_publ_section_title
;
Structure prediction by ZEFSAII (Michael W. Deem and Ramdas Pophale) SiO2 
 PCOD9009995
Probable space group: P -1
;
_chemical_formula_sum "Si O2"
_cell_formula_units_Z 14
_cell_length_a 22.536915
_cell_length_b 13.426323
_cell_length_c 23.490875
_cell_angle_alpha 22.092143
_cell_angle_beta 12.070855
_cell_angle_gamma 22.723687
_cell_volume 546.932207
_symmetry_space_group_name_H-M "P -1"
_symmetry_group_IT_number 2
_symmetry_cell_setting 'triclinic'
loop_
_space_group_symop_operation_xyz
x,y,z
-x,-y,-z
loop_
_atom_site_type_symbol
_atom_site_label
_atom_site_fract_x
_atom_site_fract_y
_atom_site_fract_z
Si Si1 0.600367 0.886341 0.553014
Si Si2 0.707017 0.372737 0.118648
Si Si3 0.090655 0.390181 0.365379
Si Si4 0.276577 0.214161 0.785754
Si Si5 0.117780 0.718445 0.507539
Si Si6 0.291589 0.887908 0.060340
Si Si7 0.768509 0.552860 0.137291
O O1 0.417017 0.715429 0.778081
O O2 0.892777 0.683777 0.405483
O O3 0.702227 0.111275 0.299384
O O4 0.395922 0.034443 0.715415
O O5 0.463880 0.627252 0.232821
O O6 0.998264 0.475429 0.778809
O O7 0.994993 0.285665 0.449513
O O8 0.433785 0.357158 0.062782
O O9 0.998707 0.200790 0.600943
O O10 0.506471 0.409059 0.473030
O O11 0.281116 0.017341 0.939593
O O12 0.958731 0.411631 0.980848
O O13 0.000000 0.000000 0.500000
O O14 0.337477 0.125614 0.934831
O O15 0.000000 0.500000 0.000000
#
# Coordination Sequence:
#
# PCOD9009995 Si02
#       7
#     2   2   2   2   2   2   2
#     4  10  25  44  66  97 128 174 222 257 321 383
#     4  10  24  45  68  91 131 167 208 276 322 369
#     4  11  24  40  63  91 133 168 203 263 316 377
#     4  11  23  39  66  94 126 168 219 262 308 396
#     4  11  24  44  68  98 125 163 216 266 324 386
#     4  11  22  40  62  92 130 170 204 261 326 365
#     4  10  21  40  61  89 126 166 214 267 314 366
#
# _framework density 25.597322999999999
#
# number of rings (size 3 to 8) (size 9 to 14) (size 15 to 20)
#    0.000    1.429    0.000    6.429    0.000   15.429 
#    0.000    0.000    0.000    0.000    0.000    0.000 
#    0.000    0.000    0.000    0.000    0.000    0.000 
#
# Total GULP energy -78563.138249 kJ/mol
# GULP energy per Si atom -5611.652732 kJ/mol
# Density = 2.553906 g / cm^3
# Si number density = 25.597323 Si / 1000 Ang^3
#
#
#
# Elastic Constant Matrix: (Units=GPa)
#
#
# Indices 1 2 3 4 5 6 
#
# 1 43.3905 37.2741 31.5985 3.6697 18.2212 10.6289
# 2 37.2741 133.5792 14.2009 15.3577 12.1299 17.0865
# 3 31.5985 14.2009 114.6608 1.9725 16.5513 3.5376
# 4 3.6697 15.3577 1.9725 44.6783 -2.0901 5.0306
# 5 18.2212 12.1299 16.5513 -2.0901 42.3284 -0.6208
# 6 10.6289 17.0865 3.5376 5.0306 -0.6208 34.5726
#
#
#
# Elastic Compliance Matrix: (Units=1/GPa)
#
#
# Indices 1 2 3 4 5 6 
#
# 1 0.045612 -0.009447 -0.009195 0.000256 -0.013447 -0.008692
# 2 -0.009447 0.010510 0.001358 -0.002650 0.000363 -0.002037
# 3 -0.009195 0.001358 0.011177 -0.000361 -0.000804 0.001050
# 4 0.000256 -0.002650 -0.000361 0.023619 0.001925 -0.002134
# 5 -0.013447 0.000363 -0.000804 0.001925 0.029782 0.004292
# 6 -0.008692 -0.002037 0.001050 -0.002134 0.004292 0.032884
#
#
# Mechanical properties :
#
#
# Convention : Reuss Voigt Hill
#
# Bulk Modulus (GPa) = 30.55196 50.86417 40.70806
# Shear Modulus (GPa) = 25.11783 38.21964 31.66874
#
# Velocity S-wave (km/s) = 3.13592 3.86827 3.52119
# Velocity P-wave (km/s) = 5.00734 6.31390 5.69820
#
# Compressibility (1/GPa) = 0.03273112
#
# Stress axis : x y z
#
# Youngs Moduli (GPa) = 21.92400 95.14584 89.46905
#
# Poissons Ratio (x) = 0.89882 0.82268
# Poissons Ratio (y) = 0.20711 -0.12147
# Poissons Ratio (z) = 0.20159 -0.12918
#
# Static dielectric constant tensor:
#      x y z
#    x 2.082760 0.016910 -0.005340 
#    y 0.016910 2.012450 0.001860 
#    z -0.005340 0.001860 1.922860 
# 
# From -- ./inp_files/619994.got.cif
#   From: 2010.05.17/outbox.cif.g08.bks.cpg/sg2_310_cif.got.tgz:619994.got - 2010.06.03 11:33:40.
