data_PCOD9009109
_publ_section_title
;
Structure prediction by ZEFSAII (Michael W. Deem and Ramdas Pophale) SiO2 
 PCOD9009109
Probable space group: P -1
;
_chemical_formula_sum "Si O2"
_cell_formula_units_Z 16
_cell_length_a 10.854787
_cell_length_b 9.927163
_cell_length_c 8.988715
_cell_angle_alpha 117.867172
_cell_angle_beta 115.816473
_cell_angle_gamma 56.874638
_cell_volume 695.579243
_symmetry_space_group_name_H-M "P -1"
_symmetry_group_IT_number 2
_symmetry_cell_setting 'triclinic'
loop_
_space_group_symop_operation_xyz
x,y,z
-x,-y,-z
loop_
_atom_site_type_symbol
_atom_site_label
_atom_site_fract_x
_atom_site_fract_y
_atom_site_fract_z
Si Si1 0.784757 0.435516 0.617352
Si Si2 0.918538 0.075799 0.844519
Si Si3 0.899165 0.409552 0.961489
Si Si4 0.303035 0.293037 0.844553
Si Si5 0.892469 0.872070 0.447568
Si Si6 0.312774 0.815156 0.697834
Si Si7 0.646473 0.147631 0.924092
Si Si8 0.645030 0.796159 0.821778
O O1 0.769619 0.430042 0.784597
O O2 0.682787 0.361209 0.444678
O O3 0.742225 0.633414 0.685479
O O4 0.956695 0.296048 0.603732
O O5 0.925673 0.946608 0.654434
O O6 0.984729 0.210408 0.911917
O O7 0.743115 0.167048 0.850281
O O8 0.000000 0.000000 0.000000
O O9 0.817371 0.511607 0.116082
O O10 0.000000 0.500000 0.000000
O O11 0.240238 0.190053 0.654610
O O12 0.469236 0.267554 0.879292
O O13 0.309326 0.230061 0.990046
O O14 0.824518 0.031600 0.380053
O O15 0.470632 0.823157 0.746317
O O16 0.294654 0.824131 0.870043
O O17 0.656983 0.959032 0.847385
#
# Coordination Sequence:
#
# PCOD9009109 Si02
#       8
#     2   2   2   2   2   2   2   2
#     4  11  23  35  68 100 132 172 230 285 318 392
#     4  12  30  44  65 101 143 177 218 286 355 388
#     4  11  24  43  70  99 132 176 226 277 331 407
#     4  10  21  41  73  99 129 180 231 268 335 406
#     4  12  22  42  66 102 131 178 236 270 329 411
#     4  11  20  41  69  99 131 179 238 268 328 407
#     4  11  23  44  68  97 142 176 216 285 344 399
#     4  10  21  39  67 104 135 173 224 283 333 397
#
# _framework density 23.002410000000001
#
# number of rings (size 3 to 8) (size 9 to 14) (size 15 to 20)
#    0.000    1.000    5.000    2.250    5.250    1.000 
#    0.000    3.750    0.000    0.000    0.000    0.000 
#    0.000    0.000    0.000    0.000    0.000    0.000 
#
# Total GULP energy -89377.889222 kJ/mol
# GULP energy per Si atom -5586.118076 kJ/mol
# Density = 2.295006 g / cm^3
# Si number density = 23.002410 Si / 1000 Ang^3
#
#
#
# Elastic Constant Matrix: (Units=GPa)
#
#
# Indices 1 2 3 4 5 6 
#
# 1 100.7972 10.5937 36.1270 5.7497 -0.6954 -13.7031
# 2 10.5937 53.4745 48.5990 22.9693 0.7135 -10.3358
# 3 36.1270 48.5990 165.2610 30.1036 18.2363 3.0153
# 4 5.7497 22.9693 30.1036 32.8698 -6.0897 2.8380
# 5 -0.6954 0.7135 18.2363 -6.0897 30.7325 6.3861
# 6 -13.7031 -10.3358 3.0153 2.8380 6.3861 32.8373
#
#
#
# Elastic Compliance Matrix: (Units=1/GPa)
#
#
# Indices 1 2 3 4 5 6 
#
# 1 0.011685 0.002093 -0.003178 -0.000962 0.000712 0.005771
# 2 0.002093 0.037606 -0.007317 -0.022116 -0.004215 0.016113
# 3 -0.003178 -0.007317 0.010585 -0.004993 -0.006571 -0.002892
# 4 -0.000962 -0.022116 -0.004993 0.055166 0.017519 -0.015079
# 5 0.000712 -0.004215 -0.006571 0.017519 0.042129 -0.010133
# 6 0.005771 0.016113 -0.002892 -0.015079 -0.010133 0.041473
#
#
# Mechanical properties :
#
#
# Convention : Reuss Voigt Hill
#
# Bulk Modulus (GPa) = 23.21746 56.68577 39.95161
# Shear Modulus (GPa) = 21.75758 34.23548 27.99653
#
# Velocity S-wave (km/s) = 3.07886 3.86209 3.49250
# Velocity P-wave (km/s) = 4.77017 6.67717 5.80255
#
# Compressibility (1/GPa) = 0.04307103
#
# Stress axis : x y z
#
# Youngs Moduli (GPa) = 85.58338 26.59164 94.47346
#
# Poissons Ratio (x) = -0.05566 0.30028
# Poissons Ratio (y) = -0.17914 0.69124
# Poissons Ratio (z) = 0.27202 0.19457
#
# Static dielectric constant tensor:
#      x y z
#    x 1.917490 -0.043470 0.001000 
#    y -0.043470 1.993170 0.000070 
#    z 0.001000 0.000070 1.840590 
# 
# From -- ./inp_files/245615.got.cif
#   From: 2010.05.17/outbox.cif.g08.bks.cpg/sg2_123_cif.got.tgz:245615.got - 2010.06.03 11:33:40.
