data_PCOD9009305
_publ_section_title
;
Structure prediction by ZEFSAII (Michael W. Deem and Ramdas Pophale) SiO2 
 PCOD9009305
Probable space group: P -1
;
_chemical_formula_sum "Si O2"
_cell_formula_units_Z 16
_cell_length_a 13.579992
_cell_length_b 11.008792
_cell_length_c 8.273974
_cell_angle_alpha 109.662830
_cell_angle_beta 36.326147
_cell_angle_gamma 97.996283
_cell_volume 670.429326
_symmetry_space_group_name_H-M "P -1"
_symmetry_group_IT_number 2
_symmetry_cell_setting 'triclinic'
loop_
_space_group_symop_operation_xyz
x,y,z
-x,-y,-z
loop_
_atom_site_type_symbol
_atom_site_label
_atom_site_fract_x
_atom_site_fract_y
_atom_site_fract_z
Si Si1 0.876368 0.724095 0.353388
Si Si2 0.314199 0.447877 0.318459
Si Si3 0.340747 0.579795 0.016502
Si Si4 0.253910 0.370078 0.847775
Si Si5 0.169245 0.746312 0.766938
Si Si6 0.990437 0.747303 0.688537
Si Si7 0.562673 0.118012 0.383853
Si Si8 0.823164 0.955668 0.741207
O O1 0.837460 0.626907 0.498704
O O2 0.818127 0.654958 0.242394
O O3 0.785304 0.871364 0.599826
O O4 0.064957 0.735777 0.063091
O O5 0.357207 0.466259 0.083693
O O6 0.254800 0.596391 0.532839
O O7 0.483809 0.375299 0.162366
O O8 0.167672 0.687428 0.334117
O O9 0.318032 0.503730 0.848898
O O10 0.407205 0.242987 0.617265
O O11 0.104935 0.362856 0.170233
O O12 0.042086 0.806602 0.815699
O O13 0.304340 0.831961 0.655703
O O14 0.868139 0.853930 0.787124
O O15 0.500000 0.000000 0.500000
O O16 0.664470 0.068746 0.061588
O O17 0.000000 0.000000 0.500000
#
# Coordination Sequence:
#
# PCOD9009305 Si02
#       8
#     2   2   2   2   2   2   2   2
#     4  11  25  41  67  97 137 177 221 282 340 394
#     4  10  21  39  68 101 137 171 218 281 343 396
#     4  10  21  39  68  99 136 170 225 278 334 403
#     4  11  23  43  66 101 133 177 229 270 334 409
#     4  10  22  44  67 100 133 176 226 276 336 407
#     4  10  23  41  69  97 130 179 224 275 334 402
#     4  12  25  44  73  94 134 184 226 278 327 405
#     4  12  26  45  66  97 138 177 226 280 332 394
#
# _framework density 23.865302
#
# number of rings (size 3 to 8) (size 9 to 14) (size 15 to 20)
#    0.000    1.250    3.750    1.500    0.000    6.500 
#    0.000    0.000    0.000    0.000    0.000    0.000 
#    0.000    0.000    0.000    0.000    0.000    0.000 
#
# Total GULP energy -89507.407753 kJ/mol
# GULP energy per Si atom -5594.212985 kJ/mol
# Density = 2.381098 g / cm^3
# Si number density = 23.865302 Si / 1000 Ang^3
#
#
#
# Elastic Constant Matrix: (Units=GPa)
#
#
# Indices 1 2 3 4 5 6 
#
# 1 65.0289 13.0436 2.4722 0.1074 -3.0823 14.0924
# 2 13.0436 56.7683 20.6922 -13.6773 3.5018 23.9216
# 3 2.4722 20.6922 114.8134 2.8472 2.3228 5.1995
# 4 0.1074 -13.6773 2.8472 44.8901 5.1678 -2.1536
# 5 -3.0823 3.5018 2.3228 5.1678 33.5205 5.4653
# 6 14.0924 23.9216 5.1995 -2.1536 5.4653 37.5593
#
#
#
# Elastic Compliance Matrix: (Units=1/GPa)
#
#
# Indices 1 2 3 4 5 6 
#
# 1 0.017155 -0.002178 0.000250 -0.001322 0.002902 -0.005582
# 2 -0.002178 0.028709 -0.004575 0.008448 -0.001556 -0.016124
# 3 0.000250 -0.004575 0.009515 -0.001920 -0.000092 0.001406
# 4 -0.001322 0.008448 -0.001920 0.025357 -0.004368 -0.002529
# 5 0.002902 -0.001556 -0.000092 -0.004368 0.031750 -0.004955
# 6 -0.005582 -0.016124 0.001406 -0.002529 -0.004955 0.039369
#
#
# Mechanical properties :
#
#
# Convention : Reuss Voigt Hill
#
# Bulk Modulus (GPa) = 23.60038 34.33628 28.96833
# Shear Modulus (GPa) = 27.93529 36.55416 32.24473
#
# Velocity S-wave (km/s) = 3.42503 3.91792 3.67974
# Velocity P-wave (km/s) = 5.05485 5.90640 5.49714
#
# Compressibility (1/GPa) = 0.04237221
#
# Stress axis : x y z
#
# Youngs Moduli (GPa) = 58.29364 34.83188 105.10020
#
# Poissons Ratio (x) = 0.07587 -0.02628
# Poissons Ratio (y) = 0.12697 0.48084
# Poissons Ratio (z) = -0.01458 0.15936
#
# Static dielectric constant tensor:
#      x y z
#    x 1.970400 -0.006990 0.009660 
#    y -0.006990 1.893520 -0.032280 
#    z 0.009660 -0.032280 1.933900 
# 
# From -- ./inp_files/176731.got.cif
#   From: 2010.05.17/outbox.cif.g08.bks.cpg/sg2_89_cif.got.tgz:176731.got - 2010.06.03 11:33:40.
