data_PCOD9009417
_publ_section_title
;
Structure prediction by ZEFSAII (Michael W. Deem and Ramdas Pophale) SiO2 
 PCOD9009417
Probable space group: P -1
;
_chemical_formula_sum "Si O2"
_cell_formula_units_Z 16
_cell_length_a 11.351919
_cell_length_b 20.013875
_cell_length_c 6.220914
_cell_angle_alpha 107.693190
_cell_angle_beta 102.594328
_cell_angle_gamma 26.756257
_cell_volume 601.488795
_symmetry_space_group_name_H-M "P -1"
_symmetry_group_IT_number 2
_symmetry_cell_setting 'triclinic'
loop_
_space_group_symop_operation_xyz
x,y,z
-x,-y,-z
loop_
_atom_site_type_symbol
_atom_site_label
_atom_site_fract_x
_atom_site_fract_y
_atom_site_fract_z
Si Si1 0.678501 0.454511 0.365447
Si Si2 0.231140 0.961781 0.484334
Si Si3 0.862143 0.115433 0.872921
Si Si4 0.557561 0.942192 0.217035
Si Si5 0.035728 0.146992 0.230775
Si Si6 0.780766 0.547124 0.714805
Si Si7 0.732910 0.707558 0.622477
Si Si8 0.901032 0.397321 0.012138
O O1 0.500000 0.500000 0.500000
O O2 0.671132 0.535836 0.538440
O O3 0.953084 0.270072 0.312730
O O4 0.676505 0.470531 0.122863
O O5 0.480242 0.875021 0.586615
O O6 0.330192 0.842489 0.271830
O O7 0.076184 0.015767 0.678919
O O8 0.023557 0.115958 0.424295
O O9 0.841521 0.203472 0.053172
O O10 0.000000 0.000000 0.000000
O O11 0.500000 0.000000 0.500000
O O12 0.351955 0.982087 0.158417
O O13 0.874374 0.764574 0.175575
O O14 0.500000 0.000000 0.000000
O O15 0.640909 0.688877 0.711230
O O16 0.078770 0.408356 0.616583
O O17 0.787298 0.516368 0.929354
O O18 0.917441 0.658711 0.794563
#
# Coordination Sequence:
#
# PCOD9009417 Si02
#       8
#     2   2   2   2   2   2   2   2
#     4  11  26  46  66  99 141 193 245 294 354 447
#     4  10  21  39  68  97 136 175 228 302 364 436
#     4   9  21  39  59  97 134 179 227 286 362 436
#     4  12  26  42  73 114 149 188 238 308 378 442
#     4  11  23  41  68 101 145 182 237 293 372 438
#     4  10  23  44  67  98 137 181 242 305 360 442
#     4  10  22  42  70 102 133 179 239 307 373 431
#     4  11  23  44  72 103 143 186 247 300 376 438
#
# _framework density 26.600663000000001
#
# number of rings (size 3 to 8) (size 9 to 14) (size 15 to 20)
#    0.000    1.500    1.250    2.625    5.250    5.500 
#    0.000    5.000    0.000    0.000    0.000    0.000 
#    0.000    0.000    0.000    0.000    0.000    0.000 
#
# Total GULP energy -89198.848035 kJ/mol
# GULP energy per Si atom -5574.928002 kJ/mol
# Density = 2.654012 g / cm^3
# Si number density = 26.600663 Si / 1000 Ang^3
#
#
#
# Elastic Constant Matrix: (Units=GPa)
#
#
# Indices 1 2 3 4 5 6 
#
# 1 150.7318 24.0622 66.0368 -11.2206 -25.8588 16.4288
# 2 24.0622 52.4555 43.2197 -8.8274 -15.4100 12.5578
# 3 66.0368 43.2197 156.5513 -9.9548 -25.2478 10.7615
# 4 -11.2206 -8.8274 -9.9548 33.6728 3.8040 -5.2078
# 5 -25.8588 -15.4100 -25.2478 3.8040 63.6877 -7.1492
# 6 16.4288 12.5578 10.7615 -5.2078 -7.1492 33.5827
#
#
#
# Elastic Compliance Matrix: (Units=1/GPa)
#
#
# Indices 1 2 3 4 5 6 
#
# 1 0.008711 -0.000023 -0.003089 0.001357 0.001929 -0.002642
# 2 -0.000023 0.027568 -0.006370 0.003903 0.003118 -0.006987
# 3 -0.003089 -0.006370 0.009564 0.000172 0.001108 0.001091
# 4 0.001357 0.003903 0.000172 0.031648 -0.000021 0.002725
# 5 0.001929 0.003118 0.001108 -0.000021 0.017829 0.001327
# 6 -0.002642 -0.006987 0.001091 0.002725 0.001327 0.034038
#
#
# Mechanical properties :
#
#
# Convention : Reuss Voigt Hill
#
# Bulk Modulus (GPa) = 37.20324 69.59732 53.40028
# Shear Modulus (GPa) = 31.79007 41.28330 36.53668
#
# Velocity S-wave (km/s) = 3.46075 3.94377 3.71013
# Velocity P-wave (km/s) = 5.47588 6.85262 6.20256
#
# Compressibility (1/GPa) = 0.02687938
#
# Stress axis : x y z
#
# Youngs Moduli (GPa) = 114.79311 36.27365 104.55968
#
# Poissons Ratio (x) = 0.00084 0.32301
# Poissons Ratio (y) = 0.00266 0.66601
# Poissons Ratio (z) = 0.35462 0.23105
#
# Static dielectric constant tensor:
#      x y z
#    x 2.235500 0.047260 0.062950 
#    y 0.047260 2.114700 0.082570 
#    z 0.062950 0.082570 2.223660 
# 
# From -- ./inp_files/83303.got.cif
#   From: 2010.05.17/outbox.cif.g08.bks.cpg/sg2_42_cif.got.tgz:83303.got - 2010.06.03 11:33:40.
