data_PCOD9009747
_publ_section_title
;
Structure prediction by ZEFSAII (Michael W. Deem and Ramdas Pophale) SiO2 
 PCOD9009747
Probable space group: P -1
;
_chemical_formula_sum "Si O2"
_cell_formula_units_Z 14
_cell_length_a 7.769257
_cell_length_b 21.552072
_cell_length_c 9.139953
_cell_angle_alpha 41.512112
_cell_angle_beta 146.746438
_cell_angle_gamma 139.916082
_cell_volume 513.977621
_symmetry_space_group_name_H-M "P -1"
_symmetry_group_IT_number 2
_symmetry_cell_setting 'triclinic'
loop_
_space_group_symop_operation_xyz
x,y,z
-x,-y,-z
loop_
_atom_site_type_symbol
_atom_site_label
_atom_site_fract_x
_atom_site_fract_y
_atom_site_fract_z
Si Si1 0.100908 0.795737 0.772172
Si Si2 0.542335 0.497797 0.705787
Si Si3 0.906726 0.032270 0.718622
Si Si4 0.031613 0.123958 0.187314
Si Si5 0.203722 0.747378 0.420631
Si Si6 0.754554 0.329588 0.113053
Si Si7 0.552560 0.404992 0.280912
O O1 0.969110 0.852781 0.454407
O O2 0.358452 0.754441 0.945543
O O3 0.204206 0.870662 0.853133
O O4 0.799331 0.693772 0.791778
O O5 0.500000 0.500000 0.500000
O O6 0.334025 0.551005 0.553634
O O7 0.923532 0.574132 0.883769
O O8 0.518520 0.384099 0.916001
O O9 0.500000 0.000000 0.500000
O O10 0.011180 0.974642 0.762081
O O11 0.000000 0.000000 0.000000
O O12 0.411957 0.168261 0.443818
O O13 0.995967 0.200115 0.906453
O O14 0.111045 0.717594 0.574602
O O15 0.205692 0.645010 0.529446
O O16 0.500000 0.500000 0.000000
#
# Coordination Sequence:
#
# PCOD9009747 Si02
#       7
#     2   2   2   2   2   2   2
#     4  10  24  43  69 102 140 180 232 284 347 416
#     4  10  22  36  61  88 131 181 232 281 335 395
#     4  12  26  49  77 105 138 181 228 291 354 415
#     4  11  25  45  70 103 137 176 226 287 348 408
#     4  11  24  43  70 100 137 183 231 281 341 413
#     4  10  21  40  58  93 133 177 230 283 336 403
#     4  10  21  43  64 100 143 186 232 282 342 405
#
# _framework density 27.23854
#
# number of rings (size 3 to 8) (size 9 to 14) (size 15 to 20)
#    0.000    1.429    1.429    3.000    4.000    2.286 
#    2.571    8.571    0.000    0.000    0.000    0.000 
#    0.000    0.000    0.000    0.000    0.000    0.000 
#
# Total GULP energy -78335.515048 kJ/mol
# GULP energy per Si atom -5595.393932 kJ/mol
# Density = 2.717654 g / cm^3
# Si number density = 27.238540 Si / 1000 Ang^3
#
#
#
# Elastic Constant Matrix: (Units=GPa)
#
#
# Indices 1 2 3 4 5 6 
#
# 1 136.1633 62.6334 28.4783 -13.3439 2.5146 -66.5897
# 2 62.6334 108.2935 33.7651 -18.6336 3.0306 -45.7120
# 3 28.4783 33.7651 120.6480 -24.6685 -9.9564 -1.4013
# 4 -13.3439 -18.6336 -24.6685 51.3174 -0.1226 3.9125
# 5 2.5146 3.0306 -9.9564 -0.1226 39.7318 -3.5365
# 6 -66.5897 -45.7120 -1.4013 3.9125 -3.5365 79.3939
#
#
#
# Elastic Compliance Matrix: (Units=1/GPa)
#
#
# Indices 1 2 3 4 5 6 
#
# 1 0.014262 -0.003180 -0.002242 0.000710 -0.000326 0.010042
# 2 -0.003180 0.014861 -0.002874 0.002754 -0.001141 0.005652
# 3 -0.002242 -0.002874 0.010567 0.003720 0.002717 -0.003411
# 4 0.000710 0.002754 0.003720 0.022371 0.000851 0.001182
# 5 -0.000326 -0.001141 0.002717 0.000851 0.025981 0.000233
# 6 0.010042 0.005652 -0.003411 0.001182 0.000233 0.024165
#
#
# Mechanical properties :
#
#
# Convention : Reuss Voigt Hill
#
# Bulk Modulus (GPa) = 43.29011 68.31760 55.80385
# Shear Modulus (GPa) = 36.63077 50.10382 43.36730
#
# Velocity S-wave (km/s) = 3.67115 4.29353 3.99448
# Velocity P-wave (km/s) = 5.82213 7.05088 6.46576
#
# Compressibility (1/GPa) = 0.02309996
#
# Stress axis : x y z
#
# Youngs Moduli (GPa) = 70.11481 67.29079 94.63235
#
# Poissons Ratio (x) = 0.21396 0.21214
# Poissons Ratio (y) = 0.22293 0.27196
# Poissons Ratio (z) = 0.15718 0.19339
#
# Static dielectric constant tensor:
#      x y z
#    x 2.281420 0.044570 0.028100 
#    y 0.044570 2.205420 0.030220 
#    z 0.028100 0.030220 2.106390 
# 
# From -- ./inp_files/27258.got.cif
#   From: 2010.05.17/outbox.cif.g08.bks.cpg/sg2_14_cif.got.tgz:27258.got - 2010.06.03 11:33:40.
