data_PCOD9009073
_publ_section_title
;
Structure prediction by ZEFSAII (Michael W. Deem and Ramdas Pophale) SiO2 
 PCOD9009073
Probable space group: P -1
;
_chemical_formula_sum "Si O2"
_cell_formula_units_Z 16
_cell_length_a 8.384297
_cell_length_b 10.911259
_cell_length_c 13.620151
_cell_angle_alpha 78.321236
_cell_angle_beta 115.584044
_cell_angle_gamma 50.332412
_cell_volume 627.324883
_symmetry_space_group_name_H-M "P -1"
_symmetry_group_IT_number 2
_symmetry_cell_setting 'triclinic'
loop_
_space_group_symop_operation_xyz
x,y,z
-x,-y,-z
loop_
_atom_site_type_symbol
_atom_site_label
_atom_site_fract_x
_atom_site_fract_y
_atom_site_fract_z
Si Si1 0.941629 0.402770 0.821494
Si Si2 0.291843 0.287603 0.765375
Si Si3 0.776061 0.757633 0.725736
Si Si4 0.141573 0.670223 0.686090
Si Si5 0.160709 0.147517 0.625008
Si Si6 0.885335 0.992338 0.876339
Si Si7 0.214660 0.730952 0.330958
Si Si8 0.278928 0.535814 0.038459
O O1 0.733318 0.642432 0.691460
O O2 0.841541 0.327714 0.766161
O O3 0.892824 0.424195 0.920020
O O4 0.251918 0.253386 0.868087
O O5 0.258187 0.457222 0.735804
O O6 0.084286 0.327527 0.626565
O O7 0.621121 0.064447 0.844188
O O8 0.836160 0.825227 0.646700
O O9 0.500054 0.943389 0.698162
O O10 0.119217 0.555365 0.902958
O O11 0.374616 0.632474 0.805581
O O12 0.059773 0.757320 0.540230
O O13 0.079728 0.102216 0.700537
O O14 0.749507 0.155221 0.726896
O O15 0.000000 0.000000 0.000000
O O16 0.155092 0.747787 0.950002
O O17 0.500000 0.500000 0.500000
#
# Coordination Sequence:
#
# PCOD9009073 Si02
#       8
#     2   2   2   2   2   2   2   2
#     4  10  23  42  68  95 136 175 220 274 337 397
#     4  10  21  39  67 100 127 173 221 280 334 392
#     4  11  25  44  63  99 134 181 222 273 331 403
#     4  11  23  43  68  94 135 178 223 278 339 392
#     4  11  23  43  67  99 132 174 227 278 330 402
#     4  12  22  40  70 101 133 172 228 282 329 392
#     4  11  24  45  71 102 135 175 223 279 342 394
#     4  12  23  44  67  97 136 178 225 272 334 403
#
# _framework density 25.505125
#
# number of rings (size 3 to 8) (size 9 to 14) (size 15 to 20)
#    0.000    1.000    3.750    3.000    0.000    3.500 
#    6.750    1.250    0.000    0.000    0.000    0.000 
#    0.000    0.000    0.000    0.000    0.000    0.000 
#
# Total GULP energy -89297.931999 kJ/mol
# GULP energy per Si atom -5581.120750 kJ/mol
# Density = 2.544707 g / cm^3
# Si number density = 25.505125 Si / 1000 Ang^3
#
#
#
# Elastic Constant Matrix: (Units=GPa)
#
#
# Indices 1 2 3 4 5 6 
#
# 1 91.7596 28.6819 13.8037 -1.4573 -4.7513 -25.7698
# 2 28.6819 94.4801 12.3005 8.8986 4.4364 -13.8479
# 3 13.8037 12.3005 62.0513 9.4873 2.9099 -4.7496
# 4 -1.4573 8.8986 9.4873 30.1169 -1.8377 -9.8788
# 5 -4.7513 4.4364 2.9099 -1.8377 37.8760 5.1178
# 6 -25.7698 -13.8479 -4.7496 -9.8788 5.1178 42.5294
#
#
#
# Elastic Compliance Matrix: (Units=1/GPa)
#
#
# Indices 1 2 3 4 5 6 
#
# 1 0.015080 -0.003519 -0.002928 0.005673 0.001617 0.008788
# 2 -0.003519 0.012374 -0.000977 -0.003224 -0.002148 0.001297
# 3 -0.002928 -0.000977 0.017863 -0.006007 -0.001743 -0.001283
# 4 0.005673 -0.003224 -0.006007 0.039976 0.002037 0.010757
# 5 0.001617 -0.002148 -0.001743 0.002037 0.027460 -0.002746
# 6 0.008788 0.001297 -0.001283 0.010757 -0.002746 0.031946
#
#
# Mechanical properties :
#
#
# Convention : Reuss Voigt Hill
#
# Bulk Modulus (GPa) = 32.81952 39.76255 36.29103
# Shear Modulus (GPa) = 29.46302 35.00479 32.23390
#
# Velocity S-wave (km/s) = 3.40248 3.70869 3.55888
# Velocity P-wave (km/s) = 5.32274 5.82778 5.58098
#
# Compressibility (1/GPa) = 0.03046967
#
# Stress axis : x y z
#
# Youngs Moduli (GPa) = 66.31190 80.81195 55.98260
#
# Poissons Ratio (x) = 0.28438 0.16390
# Poissons Ratio (y) = 0.23335 0.05471
# Poissons Ratio (z) = 0.19414 0.07897
#
# Static dielectric constant tensor:
#      x y z
#    x 2.107450 0.032630 0.090630 
#    y 0.032630 2.040270 -0.010600 
#    z 0.090630 -0.010600 2.080380 
# 
# From -- ./inp_files/500296.got.cif
#   From: 2010.05.17/outbox.cif.g08.bks.cpg/sg2_251_cif.got.tgz:500296.got - 2010.06.03 11:33:40.
