data_PCOD9009072
_publ_section_title
;
Structure prediction by ZEFSAII (Michael W. Deem and Ramdas Pophale) SiO2 
 PCOD9009072
Probable space group: P -1
;
_chemical_formula_sum "Si O2"
_cell_formula_units_Z 14
_cell_length_a 13.623248
_cell_length_b 23.311404
_cell_length_c 16.547244
_cell_angle_alpha 16.837999
_cell_angle_beta 154.787838
_cell_angle_gamma 152.983532
_cell_volume 635.045997
_symmetry_space_group_name_H-M "P -1"
_symmetry_group_IT_number 2
_symmetry_cell_setting 'triclinic'
loop_
_space_group_symop_operation_xyz
x,y,z
-x,-y,-z
loop_
_atom_site_type_symbol
_atom_site_label
_atom_site_fract_x
_atom_site_fract_y
_atom_site_fract_z
Si Si1 0.162067 0.862964 0.347932
Si Si2 0.066284 0.278378 0.347482
Si Si3 0.251559 0.444074 0.936099
Si Si4 0.563694 0.178184 0.159062
Si Si5 0.878147 0.307969 0.722424
Si Si6 0.384974 0.398653 0.279915
Si Si7 0.796300 0.863505 0.197578
O O1 0.144916 0.646831 0.586698
O O2 0.047241 0.832544 0.391422
O O3 0.423874 0.987938 0.361864
O O4 0.000000 0.000000 0.000000
O O5 0.203677 0.259870 0.392364
O O6 0.231172 0.246989 0.587890
O O7 0.809523 0.143041 0.354426
O O8 0.000000 0.500000 0.000000
O O9 0.068421 0.286250 0.961292
O O10 0.500000 0.500000 0.000000
O O11 0.290655 0.387951 0.132849
O O12 0.586703 0.375494 0.966668
O O13 0.402641 0.209811 0.918724
O O14 0.641735 0.346978 0.534898
O O15 0.000000 0.500000 0.500000
O O16 0.814374 0.102285 0.901603
#
# Coordination Sequence:
#
# PCOD9009072 Si02
#       7
#     2   2   2   2   2   2   2
#     4  10  21  39  67 100 127 168 220 273 332 390
#     4  10  24  42  64  96 130 175 229 271 321 398
#     4  12  26  42  69  97 136 177 216 274 349 391
#     4  10  22  41  69  96 131 166 226 277 324 396
#     4  12  24  43  68  99 138 170 217 278 338 403
#     4  11  25  43  65  97 133 177 222 271 334 397
#     4  11  24  41  70  99 130 177 219 273 340 387
#
# _framework density 22.045648
#
# number of rings (size 3 to 8) (size 9 to 14) (size 15 to 20)
#    0.000    1.143    1.429    6.000    2.000    5.143 
#    0.000    1.429    0.000    0.000    0.000    0.000 
#    0.000    0.000    0.000    0.000    0.000    0.000 
#
# Total GULP energy -78297.314954 kJ/mol
# GULP energy per Si atom -5592.665354 kJ/mol
# Density = 2.199547 g / cm^3
# Si number density = 22.045648 Si / 1000 Ang^3
#
#
#
# Elastic Constant Matrix: (Units=GPa)
#
#
# Indices 1 2 3 4 5 6 
#
# 1 177.3805 43.2430 29.7525 23.5055 -4.8253 7.9578
# 2 43.2430 81.8268 5.0213 27.2906 -0.9857 -3.6689
# 3 29.7525 5.0213 76.9239 9.6284 5.5133 -4.7345
# 4 23.5055 27.2906 9.6284 36.1219 -9.1369 -1.9481
# 5 -4.8253 -0.9857 5.5133 -9.1369 48.6921 18.3531
# 6 7.9578 -3.6689 -4.7345 -1.9481 18.3531 38.8512
#
#
#
# Elastic Compliance Matrix: (Units=1/GPa)
#
#
# Indices 1 2 3 4 5 6 
#
# 1 0.007278 -0.003433 -0.002788 -0.001076 0.001944 -0.003127
# 2 -0.003433 0.018407 0.002324 -0.013143 -0.004229 0.004063
# 3 -0.002788 0.002324 0.015147 -0.004892 -0.004579 0.004554
# 4 -0.001076 -0.013143 -0.004892 0.041815 0.009547 -0.004030
# 5 0.001944 -0.004229 -0.004579 0.009547 0.028329 -0.014259
# 6 -0.003127 0.004063 0.004554 -0.004030 -0.014259 0.033852
#
#
# Mechanical properties :
#
#
# Convention : Reuss Voigt Hill
#
# Bulk Modulus (GPa) = 30.26689 54.68495 42.47592
# Shear Modulus (GPa) = 30.55581 41.94066 36.24824
#
# Velocity S-wave (km/s) = 3.72697 4.36644 4.05932
# Velocity P-wave (km/s) = 5.68150 7.09085 6.42494
#
# Compressibility (1/GPa) = 0.03303941
#
# Stress axis : x y z
#
# Youngs Moduli (GPa) = 137.40208 54.32660 66.01856
#
# Poissons Ratio (x) = 0.18650 0.18406
# Poissons Ratio (y) = 0.47170 -0.15346
# Poissons Ratio (z) = 0.38307 -0.12628
#
# Static dielectric constant tensor:
#      x y z
#    x 1.820830 0.010450 -0.047120 
#    y 0.010450 1.843300 0.003500 
#    z -0.047120 0.003500 1.826260 
# 
# From -- ./inp_files/222559.got.cif
#   From: 2010.05.17/outbox.cif.g08.bks.cpg/sg2_112_cif.got.tgz:222559.got - 2010.06.03 11:33:40.
