data_PCOD9009408
_publ_section_title
;
Structure prediction by ZEFSAII (Michael W. Deem and Ramdas Pophale) SiO2 
 PCOD9009408
Probable space group: P -1
;
_chemical_formula_sum "Si O2"
_cell_formula_units_Z 14
_cell_length_a 12.152728
_cell_length_b 6.576019
_cell_length_c 14.052236
_cell_angle_alpha 103.250512
_cell_angle_beta 43.176542
_cell_angle_gamma 127.623112
_cell_volume 558.204374
_symmetry_space_group_name_H-M "P -1"
_symmetry_group_IT_number 2
_symmetry_cell_setting 'triclinic'
loop_
_space_group_symop_operation_xyz
x,y,z
-x,-y,-z
loop_
_atom_site_type_symbol
_atom_site_label
_atom_site_fract_x
_atom_site_fract_y
_atom_site_fract_z
Si Si1 0.888893 0.737186 0.665674
Si Si2 0.808724 0.821329 0.327682
Si Si3 0.211274 0.986635 0.851218
Si Si4 0.747670 0.536488 0.057295
Si Si5 0.255581 0.021366 0.334435
Si Si6 0.723234 0.283494 0.855291
Si Si7 0.569563 0.205591 0.390091
O O1 0.792433 0.782881 0.644505
O O2 0.714225 0.436628 0.790190
O O3 0.979009 0.945940 0.720972
O O4 0.103658 0.818382 0.494321
O O5 0.763924 0.535222 0.323015
O O6 0.619805 0.784984 0.499861
O O7 0.797702 0.909854 0.237640
O O8 0.360143 0.912594 0.741239
O O9 0.279369 0.234288 0.904032
O O10 0.966578 0.705061 0.998024
O O11 0.515204 0.244055 0.203565
O O12 0.810209 0.477435 0.912875
O O13 0.169252 0.817497 0.275832
O O14 0.500000 0.000000 0.000000
O O15 0.500000 0.000000 0.500000
#
# Coordination Sequence:
#
# PCOD9009408 Si02
#       7
#     2   2   2   2   2   2   2
#     4  11  23  43  68 100 132 173 228 279 335 393
#     4  10  21  39  68  97 130 170 224 275 329 403
#     4  10  21  43  64  95 137 172 218 273 335 395
#     4  10  22  42  66  94 137 175 217 274 325 405
#     4  10  25  42  67  98 134 177 224 281 332 389
#     4  10  22  45  67  94 131 177 223 274 330 396
#     4   9  21  37  62  98 129 171 214 269 336 388
#
# _framework density 25.08042
#
# number of rings (size 3 to 8) (size 9 to 14) (size 15 to 20)
#    0.000    2.000    1.429    0.429    8.000    2.286 
#    5.143    4.286    0.000    0.000    0.000    0.000 
#    0.000    0.000    0.000    0.000    0.000    0.000 
#
# Total GULP energy -78045.652112 kJ/mol
# GULP energy per Si atom -5574.689437 kJ/mol
# Density = 2.502334 g / cm^3
# Si number density = 25.080420 Si / 1000 Ang^3
#
#
#
# Elastic Constant Matrix: (Units=GPa)
#
#
# Indices 1 2 3 4 5 6 
#
# 1 44.7126 27.3136 24.5907 -12.4977 -2.0595 -5.6588
# 2 27.3136 155.0919 58.3050 5.3534 -0.5798 -2.8428
# 3 24.5907 58.3050 110.8327 0.0331 15.4938 0.1838
# 4 -12.4977 5.3534 0.0331 61.2548 -10.5535 4.5783
# 5 -2.0595 -0.5798 15.4938 -10.5535 14.7290 1.7390
# 6 -5.6588 -2.8428 0.1838 4.5783 1.7390 32.3972
#
#
#
# Elastic Compliance Matrix: (Units=1/GPa)
#
#
# Indices 1 2 3 4 5 6 
#
# 1 0.033152 -0.002737 -0.008849 0.010388 0.020924 0.003010
# 2 -0.002737 0.008686 -0.004567 -0.000581 0.004328 0.000160
# 3 -0.008849 -0.004567 0.016553 -0.005307 -0.022623 -0.000076
# 4 0.010388 -0.000581 -0.005307 0.022774 0.023648 -0.002694
# 5 0.020924 0.004328 -0.022623 0.023648 0.112347 -0.005210
# 6 0.003010 0.000160 -0.000076 -0.002694 -0.005210 0.032067
#
#
# Mechanical properties :
#
#
# Convention : Reuss Voigt Hill
#
# Bulk Modulus (GPa) = 38.33680 59.00620 48.67150
# Shear Modulus (GPa) = 18.75613 35.03804 26.89709
#
# Velocity S-wave (km/s) = 2.73763 3.74174 3.27836
# Velocity P-wave (km/s) = 5.03106 6.49964 5.81192
#
# Compressibility (1/GPa) = 0.02608460
#
# Stress axis : x y z
#
# Youngs Moduli (GPa) = 30.16434 115.12767 60.41258
#
# Poissons Ratio (x) = 0.31511 0.53457
# Poissons Ratio (y) = 0.08256 0.27592
# Poissons Ratio (z) = 0.26691 0.52582
#
# Static dielectric constant tensor:
#      x y z
#    x 2.145500 0.041470 0.029160 
#    y 0.041470 2.039540 0.030840 
#    z 0.029160 0.030840 2.052110 
# 
# From -- ./inp_files/525931.got.cif
#   From: 2010.05.17/outbox.cif.g08.bks.cpg/sg2_263_cif.got.tgz:525931.got - 2010.06.03 11:33:40.
