data_PCOD9009757
_publ_section_title
;
Structure prediction by ZEFSAII (Michael W. Deem and Ramdas Pophale) SiO2 
 PCOD9009757
Probable space group: P -1
;
_chemical_formula_sum "Si O2"
_cell_formula_units_Z 16
_cell_length_a 8.303738
_cell_length_b 23.516496
_cell_length_c 9.162970
_cell_angle_alpha 31.725895
_cell_angle_beta 128.219937
_cell_angle_gamma 132.394491
_cell_volume 690.160957
_symmetry_space_group_name_H-M "P -1"
_symmetry_group_IT_number 2
_symmetry_cell_setting 'triclinic'
loop_
_space_group_symop_operation_xyz
x,y,z
-x,-y,-z
loop_
_atom_site_type_symbol
_atom_site_label
_atom_site_fract_x
_atom_site_fract_y
_atom_site_fract_z
Si Si1 0.238803 0.039054 0.974798
Si Si2 0.158601 0.649957 0.449828
Si Si3 0.484284 0.562068 0.501965
Si Si4 0.619339 0.217660 0.989496
Si Si5 0.039980 0.380710 0.304476
Si Si6 0.358927 0.825949 0.584615
Si Si7 0.729925 0.563634 0.074865
Si Si8 0.631072 0.781898 0.584101
O O1 0.412105 0.136706 0.958853
O O2 0.322573 0.932034 0.249791
O O3 0.251478 0.097773 0.695802
O O4 0.000000 0.000000 0.000000
O O5 0.125037 0.512953 0.721936
O O6 0.394392 0.713535 0.524121
O O7 0.990108 0.658975 0.456534
O O8 0.192169 0.718029 0.166190
O O9 0.500000 0.500000 0.500000
O O10 0.712396 0.600397 0.634895
O O11 0.308420 0.470972 0.702260
O O12 0.427568 0.674583 0.202157
O O13 0.637745 0.149449 0.293998
O O14 0.859984 0.285334 0.319191
O O15 0.000000 0.500000 0.000000
O O16 0.559044 0.800741 0.668373
O O17 0.500000 0.500000 0.000000
O O18 0.768589 0.699196 0.803867
#
# Coordination Sequence:
#
# PCOD9009757 Si02
#       8
#     2   2   2   2   2   2   2   2
#     4  11  23  39  59  85 112 148 192 238 284 335
#     4   8  18  33  55  82 114 149 184 226 281 333
#     4  11  21  36  57  85 119 151 182 227 283 338
#     4  10  21  40  59  82 117 152 187 233 285 336
#     4  11  21  36  58  87 116 149 192 234 276 337
#     4  11  22  39  61  83 109 151 195 235 281 333
#     4   9  16  32  55  80 110 149 184 221 279 337
#     4   9  18  35  57  80 110 149 189 230 280 335
#
# _framework density 23.182997
#
# number of rings (size 3 to 8) (size 9 to 14) (size 15 to 20)
#    0.000    2.000    0.000    6.000    0.000    1.000 
#    0.000   10.000    0.000    0.000    0.000    0.000 
#    0.000    0.000    0.000    0.000    0.000    0.000 
#
# Total GULP energy -89341.017004 kJ/mol
# GULP energy per Si atom -5583.813563 kJ/mol
# Density = 2.313023 g / cm^3
# Si number density = 23.182997 Si / 1000 Ang^3
#
#
#
# Elastic Constant Matrix: (Units=GPa)
#
#
# Indices 1 2 3 4 5 6 
#
# 1 83.2112 17.5254 14.6621 4.0444 -31.8396 -7.2889
# 2 17.5254 67.2387 6.2853 -0.6102 -12.3083 -4.9346
# 3 14.6621 6.2853 103.6657 -12.0323 -11.9687 0.0543
# 4 4.0444 -0.6102 -12.0323 35.5027 -5.4205 -2.7916
# 5 -31.8396 -12.3083 -11.9687 -5.4205 32.2511 3.6640
# 6 -7.2889 -4.9346 0.0543 -2.7916 3.6640 34.1440
#
#
#
# Elastic Compliance Matrix: (Units=1/GPa)
#
#
# Indices 1 2 3 4 5 6 
#
# 1 0.019658 -0.001537 -0.000488 0.000554 0.018501 0.002035
# 2 -0.001537 0.016270 -0.000081 0.001271 0.004691 0.001624
# 3 -0.000488 -0.000081 0.010707 0.004307 0.004211 -0.000233
# 4 0.000554 0.001271 0.004307 0.030903 0.007596 0.002007
# 5 0.018501 0.004691 0.004211 0.007596 0.053964 -0.000549
# 6 0.002035 0.001624 -0.000233 0.002007 -0.000549 0.030180
#
#
# Mechanical properties :
#
#
# Convention : Reuss Voigt Hill
#
# Bulk Modulus (GPa) = 23.57206 36.78458 30.17832
# Shear Modulus (GPa) = 27.77251 34.75574 31.26412
#
# Velocity S-wave (km/s) = 3.46492 3.87614 3.67629
# Velocity P-wave (km/s) = 5.11835 5.99451 5.57367
#
# Compressibility (1/GPa) = 0.04242311
#
# Stress axis : x y z
#
# Youngs Moduli (GPa) = 50.87017 61.46288 93.40057
#
# Poissons Ratio (x) = 0.09447 0.04557
# Poissons Ratio (y) = 0.07819 0.00754
# Poissons Ratio (z) = 0.02482 0.00496
#
# Static dielectric constant tensor:
#      x y z
#    x 1.711410 -0.067910 0.085250 
#    y -0.067910 1.891720 0.112040 
#    z 0.085250 0.112040 1.874330 
# 
# From -- ./inp_files/203576.got.cif
#   From: 2010.05.17/outbox.cif.g08.bks.cpg/sg2_102_cif.got.tgz:203576.got - 2010.06.03 11:33:40.
