data_PCOD9009537
_publ_section_title
;
Structure prediction by ZEFSAII (Michael W. Deem and Ramdas Pophale) SiO2 
 PCOD9009537
Probable space group: P -1
;
_chemical_formula_sum "Si O2"
_cell_formula_units_Z 16
_cell_length_a 16.913396
_cell_length_b 18.323565
_cell_length_c 7.678626
_cell_angle_alpha 143.227909
_cell_angle_beta 146.277520
_cell_angle_gamma 34.052102
_cell_volume 690.177034
_symmetry_space_group_name_H-M "P -1"
_symmetry_group_IT_number 2
_symmetry_cell_setting 'triclinic'
loop_
_space_group_symop_operation_xyz
x,y,z
-x,-y,-z
loop_
_atom_site_type_symbol
_atom_site_label
_atom_site_fract_x
_atom_site_fract_y
_atom_site_fract_z
Si Si1 0.936825 0.145237 0.257772
Si Si2 0.556988 0.281118 0.883611
Si Si3 0.405554 0.165456 0.107071
Si Si4 0.111325 0.071588 0.795114
Si Si5 0.608339 0.433516 0.743244
Si Si6 0.050048 0.617100 0.855578
Si Si7 0.548336 0.191510 0.078165
Si Si8 0.024431 0.352791 0.825954
O O1 0.063665 0.107120 0.574840
O O2 0.946975 0.271811 0.421954
O O3 0.753168 0.203163 0.098725
O O4 0.000000 0.000000 0.000000
O O5 0.498135 0.225899 0.510030
O O6 0.484161 0.447339 0.056750
O O7 0.496773 0.248787 0.896864
O O8 0.418602 0.191190 0.974564
O O9 0.218473 0.248898 0.983193
O O10 0.500000 0.000000 0.000000
O O11 0.299065 0.962202 0.954356
O O12 0.000000 0.000000 0.500000
O O13 0.066903 0.218347 0.084999
O O14 0.500000 0.500000 0.500000
O O15 0.616274 0.284673 0.479138
O O16 0.782432 0.419249 0.999314
O O17 0.000000 0.500000 0.500000
O O18 0.064097 0.614379 0.085796
O O19 0.000000 0.500000 0.000000
#
# Coordination Sequence:
#
# PCOD9009537 Si02
#       8
#     2   2   2   2   2   2   2   2
#     4  11  23  44  71  98 135 178 229 288 337 410
#     4  11  24  44  72 101 134 177 236 285 340 412
#     4  12  27  48  66 101 147 182 227 291 351 411
#     4  11  19  40  67 100 133 170 231 282 334 407
#     4  10  21  39  69  98 128 175 229 279 338 403
#     4  11  23  42  66  97 138 172 221 287 339 400
#     4  11  23  42  74  98 134 186 232 281 347 411
#     4  11  26  45  66  99 144 179 224 285 352 412
#
# _framework density 23.182459000000001
#
# number of rings (size 3 to 8) (size 9 to 14) (size 15 to 20)
#    0.000    1.000    2.500    6.000    5.250    2.000 
#    6.750    0.000    0.000    0.000    0.000    0.000 
#    0.000    0.000    0.000    0.000    0.000    0.000 
#
# Total GULP energy -89430.675465 kJ/mol
# GULP energy per Si atom -5589.417217 kJ/mol
# Density = 2.312970 g / cm^3
# Si number density = 23.182459 Si / 1000 Ang^3
#
#
#
# Elastic Constant Matrix: (Units=GPa)
#
#
# Indices 1 2 3 4 5 6 
#
# 1 92.1786 25.2327 12.3946 3.5517 3.8241 11.1368
# 2 25.2327 126.2107 36.7421 36.9445 -1.3110 -19.9437
# 3 12.3946 36.7421 94.8029 41.8267 1.0984 3.6719
# 4 3.5517 36.9445 41.8267 52.9966 -1.6284 1.2075
# 5 3.8241 -1.3110 1.0984 -1.6284 31.3499 6.7065
# 6 11.1368 -19.9437 3.6719 1.2075 6.7065 22.6551
#
#
#
# Elastic Compliance Matrix: (Units=1/GPa)
#
#
# Indices 1 2 3 4 5 6 
#
# 1 0.013733 -0.005501 -0.000967 0.003976 0.000883 -0.011910
# 2 -0.005501 0.014930 -0.001636 -0.009234 -0.002860 0.017452
# 3 -0.000967 -0.001636 0.016681 -0.011911 -0.000539 -0.002875
# 4 0.003976 -0.009234 -0.011911 0.034808 0.003731 -0.011112
# 5 0.000883 -0.002860 -0.000539 0.003731 0.034739 -0.013347
# 6 -0.011910 0.017452 -0.002875 -0.011112 -0.013347 0.070367
#
#
# Mechanical properties :
#
#
# Convention : Reuss Voigt Hill
#
# Bulk Modulus (GPa) = 34.31981 51.32568 42.82274
# Shear Modulus (GPa) = 23.67657 37.32182 30.49920
#
# Velocity S-wave (km/s) = 3.19927 4.01673 3.63108
# Velocity P-wave (km/s) = 5.33699 6.61060 6.00764
#
# Compressibility (1/GPa) = 0.02913769
#
# Stress axis : x y z
#
# Youngs Moduli (GPa) = 72.81496 66.97843 59.94679
#
# Poissons Ratio (x) = 0.36845 0.05794
# Poissons Ratio (y) = 0.40055 0.09808
# Poissons Ratio (z) = 0.07038 0.10959
#
# Static dielectric constant tensor:
#      x y z
#    x 1.985130 -0.090640 -0.072400 
#    y -0.090640 2.316870 0.346220 
#    z -0.072400 0.346220 2.069140 
# 
# From -- ./inp_files/338242.got.cif
#   From: 2010.05.17/outbox.cif.g08.bks.cpg/sg2_170_cif.got.tgz:338242.got - 2010.06.03 11:33:40.
