data_PCOD9009563
_publ_section_title
;
Structure prediction by ZEFSAII (Michael W. Deem and Ramdas Pophale) SiO2 
 PCOD9009563
Probable space group: P -1
;
_chemical_formula_sum "Si O2"
_cell_formula_units_Z 16
_cell_length_a 10.391922
_cell_length_b 17.045183
_cell_length_c 10.071904
_cell_angle_alpha 98.634502
_cell_angle_beta 132.537571
_cell_angle_gamma 49.098727
_cell_volume 845.487296
_symmetry_space_group_name_H-M "P -1"
_symmetry_group_IT_number 2
_symmetry_cell_setting 'triclinic'
loop_
_space_group_symop_operation_xyz
x,y,z
-x,-y,-z
loop_
_atom_site_type_symbol
_atom_site_label
_atom_site_fract_x
_atom_site_fract_y
_atom_site_fract_z
Si Si1 0.640110 0.961203 0.301466
Si Si2 0.504975 0.258929 0.977549
Si Si3 0.290993 0.500753 0.859333
Si Si4 0.905199 0.886912 0.171523
Si Si5 0.095083 0.289474 0.559865
Si Si6 0.063725 0.999218 0.390554
Si Si7 0.262529 0.426156 0.082011
Si Si8 0.694243 0.372807 0.529024
O O1 0.768883 0.928088 0.234533
O O2 0.811725 0.830001 0.450337
O O3 0.687270 0.026141 0.431439
O O4 0.335427 0.039822 0.082202
O O5 0.440688 0.366352 0.893521
O O6 0.354927 0.242424 0.789432
O O7 0.812370 0.134089 0.188391
O O8 0.360793 0.317683 0.035743
O O9 0.043921 0.608942 0.622122
O O10 0.500000 0.500000 0.000000
O O11 0.204569 0.513351 0.953170
O O12 0.106438 0.743819 0.266155
O O13 0.063313 0.915969 0.290783
O O14 0.875012 0.353375 0.538878
O O15 0.000000 0.000000 0.500000
O O16 0.509164 0.371756 0.326833
O O17 0.000000 0.500000 0.000000
O O18 0.500000 0.500000 0.500000
#
# Coordination Sequence:
#
# PCOD9009563 Si02
#       8
#     2   2   2   2   2   2   2   2
#     4   9  17  29  52  78 110 141 184 237 285 329
#     4  10  20  31  54  83 117 146 188 237 284 339
#     4  10  20  35  55  79 117 151 192 236 286 336
#     4   9  18  32  48  77 111 144 186 230 286 336
#     4  11  18  35  55  84 115 147 193 239 285 339
#     4  10  17  29  49  79 111 145 179 239 291 328
#     4  10  21  37  52  81 116 150 189 231 286 344
#     4  11  22  36  55  79 117 154 186 234 287 347
#
# _framework density 18.923998999999998
#
# number of rings (size 3 to 8) (size 9 to 14) (size 15 to 20)
#    0.750    1.250    2.500    4.125    1.750    0.000 
#    2.250    0.000    0.000    0.000    0.000    6.125 
#    0.000    0.000    0.000    0.000    0.000    0.000 
#
# Total GULP energy -89157.937891 kJ/mol
# GULP energy per Si atom -5572.371118 kJ/mol
# Density = 1.888093 g / cm^3
# Si number density = 18.923999 Si / 1000 Ang^3
#
#
#
# Elastic Constant Matrix: (Units=GPa)
#
#
# Indices 1 2 3 4 5 6 
#
# 1 54.2185 14.3844 17.6793 -4.0237 4.1934 15.0742
# 2 14.3844 73.4887 27.3731 -8.8370 6.4542 16.8342
# 3 17.6793 27.3731 111.5326 -5.0561 0.9594 12.3646
# 4 -4.0237 -8.8370 -5.0561 33.7993 16.5618 2.4045
# 5 4.1934 6.4542 0.9594 16.5618 20.9875 1.4435
# 6 15.0742 16.8342 12.3646 2.4045 1.4435 20.2620
#
#
#
# Elastic Compliance Matrix: (Units=1/GPa)
#
#
# Indices 1 2 3 4 5 6 
#
# 1 0.026170 0.003204 -0.001886 0.012188 -0.014273 -0.021410
# 2 0.003204 0.022199 -0.002866 0.016448 -0.018962 -0.019679
# 3 -0.001886 -0.002866 0.010269 0.000444 0.000615 -0.002579
# 4 0.012188 0.016448 0.000444 0.065357 -0.057254 -0.026682
# 5 -0.014273 -0.018962 0.000615 -0.057254 0.099716 0.025688
# 6 -0.021410 -0.019679 -0.002579 -0.026682 0.025688 0.084542
#
#
# Mechanical properties :
#
#
# Convention : Reuss Voigt Hill
#
# Bulk Modulus (GPa) = 18.00426 39.79039 28.89732
# Shear Modulus (GPa) = 15.15778 26.99661 21.07719
#
# Velocity S-wave (km/s) = 2.83323 3.78111 3.34096
# Velocity P-wave (km/s) = 4.49862 6.33517 5.49418
#
# Compressibility (1/GPa) = 0.05554242
#
# Stress axis : x y z
#
# Youngs Moduli (GPa) = 38.21202 45.04661 97.38039
#
# Poissons Ratio (x) = -0.14431 0.18363
# Poissons Ratio (y) = -0.12241 0.27906
# Poissons Ratio (z) = 0.07206 0.12909
#
# Static dielectric constant tensor:
#      x y z
#    x 1.641850 0.024590 -0.008740 
#    y 0.024590 1.681470 0.005120 
#    z -0.008740 0.005120 1.667580 
# 
# From -- ./inp_files/435847.got.cif
#   From: 2010.05.17/outbox.cif.g08.bks.cpg/sg2_218_cif.got.tgz:435847.got - 2010.06.03 11:33:40.
