data_PCOD9009397
_publ_section_title
;
Structure prediction by ZEFSAII (Michael W. Deem and Ramdas Pophale) SiO2 
 PCOD9009397
Probable space group: P -1
;
_chemical_formula_sum "Si O2"
_cell_formula_units_Z 14
_cell_length_a 9.704655
_cell_length_b 9.980080
_cell_length_c 22.470541
_cell_angle_alpha 20.222674
_cell_angle_beta 131.131197
_cell_angle_gamma 125.207105
_cell_volume 559.666127
_symmetry_space_group_name_H-M "P -1"
_symmetry_group_IT_number 2
_symmetry_cell_setting 'triclinic'
loop_
_space_group_symop_operation_xyz
x,y,z
-x,-y,-z
loop_
_atom_site_type_symbol
_atom_site_label
_atom_site_fract_x
_atom_site_fract_y
_atom_site_fract_z
Si Si1 0.723927 0.782279 0.942630
Si Si2 0.362791 0.343539 0.288232
Si Si3 0.047055 0.421067 0.400181
Si Si4 0.320578 0.145084 0.693253
Si Si5 0.217676 0.346424 0.120587
Si Si6 0.953283 0.532494 0.754992
Si Si7 0.681450 0.830932 0.186534
O O1 0.705024 0.313414 0.130820
O O2 0.871031 0.758084 0.047911
O O3 0.542358 0.088184 0.778754
O O4 0.763685 0.854316 0.854519
O O5 0.286925 0.183207 0.272336
O O6 0.197913 0.456541 0.240733
O O7 0.492337 0.681411 0.176956
O O8 0.500000 0.000000 0.500000
O O9 0.097626 0.531103 0.301684
O O10 0.855083 0.693424 0.250292
O O11 0.210187 0.399780 0.504017
O O12 0.000397 0.977243 0.576861
O O13 0.256865 0.315491 0.668433
O O14 0.000000 0.500000 0.000000
O O15 0.335740 0.705558 0.001967
#
# Coordination Sequence:
#
# PCOD9009397 Si02
#       7
#     2   2   2   2   2   2   2
#     4   9  19  39  63  92 128 172 217 271 322 391
#     4  12  25  42  68 102 135 172 221 273 329 397
#     4  10  21  39  68  96 132 174 219 274 329 385
#     4   9  20  37  65  93 127 171 223 266 325 386
#     4  11  24  44  70  96 132 177 223 268 334 391
#     4  10  21  40  64  97 132 173 219 270 331 389
#     4  11  24  43  67 101 135 173 218 275 331 394
#
# _framework density 25.014911999999999
#
# number of rings (size 3 to 8) (size 9 to 14) (size 15 to 20)
#    0.000    1.714    2.857    0.857    2.000    5.714 
#    2.571    2.143    0.000    0.000    0.000    0.000 
#    0.000    0.000    0.000    0.000    0.000    0.000 
#
# Total GULP energy -78288.286972 kJ/mol
# GULP energy per Si atom -5592.020498 kJ/mol
# Density = 2.495798 g / cm^3
# Si number density = 25.014912 Si / 1000 Ang^3
#
#
#
# Elastic Constant Matrix: (Units=GPa)
#
#
# Indices 1 2 3 4 5 6 
#
# 1 81.2683 17.9765 30.7504 21.7481 -10.4558 -11.6748
# 2 17.9765 153.0522 30.5494 34.4953 -17.3982 -9.8439
# 3 30.7504 30.5494 71.1013 32.1276 -20.3630 -11.2739
# 4 21.7481 34.4953 32.1276 54.7640 5.6658 -9.9894
# 5 -10.4558 -17.3982 -20.3630 5.6658 37.9749 3.0081
# 6 -11.6748 -9.8439 -11.2739 -9.9894 3.0081 42.4206
#
#
#
# Elastic Compliance Matrix: (Units=1/GPa)
#
#
# Indices 1 2 3 4 5 6 
#
# 1 0.015423 0.000293 -0.003928 -0.003888 0.002683 0.002163
# 2 0.000293 0.008390 0.000618 -0.006232 0.005157 0.000359
# 3 -0.003928 0.000618 0.028052 -0.016753 0.016633 0.001393
# 4 -0.003888 -0.006232 -0.016753 0.035986 -0.018502 0.002817
# 5 0.002683 0.005157 0.016633 -0.018502 0.041187 -0.000922
# 6 0.002163 0.000359 0.001393 0.002817 -0.000922 0.025351
#
#
# Mechanical properties :
#
#
# Convention : Reuss Voigt Hill
#
# Bulk Modulus (GPa) = 21.81879 51.55271 36.68575
# Shear Modulus (GPa) = 28.45769 42.10826 35.28298
#
# Velocity S-wave (km/s) = 3.37653 4.10729 3.75971
# Velocity P-wave (km/s) = 4.89311 6.56861 5.79177
#
# Compressibility (1/GPa) = 0.04583206
#
# Stress axis : x y z
#
# Youngs Moduli (GPa) = 64.83932 119.19264 35.64783
#
# Poissons Ratio (x) = -0.03492 0.14001
# Poissons Ratio (y) = -0.01900 -0.02204
# Poissons Ratio (z) = 0.25467 -0.07371
#
# Static dielectric constant tensor:
#      x y z
#    x 2.064640 0.050410 -0.156060 
#    y 0.050410 2.058550 -0.035780 
#    z -0.156060 -0.035780 1.963540 
# 
# From -- ./inp_files/185004.got.cif
#   From: 2010.05.17/outbox.cif.g08.bks.cpg/sg2_93_cif.got.tgz:185004.got - 2010.06.03 11:33:40.
