data_PCOD9009281
_publ_section_title
;
Structure prediction by ZEFSAII (Michael W. Deem and Ramdas Pophale) SiO2 
 PCOD9009281
Probable space group: P -1
;
_chemical_formula_sum "Si O2"
_cell_formula_units_Z 16
_cell_length_a 19.437012
_cell_length_b 7.471034
_cell_length_c 12.765268
_cell_angle_alpha 48.342043
_cell_angle_beta 149.132973
_cell_angle_gamma 129.153421
_cell_volume 701.530907
_symmetry_space_group_name_H-M "P -1"
_symmetry_group_IT_number 2
_symmetry_cell_setting 'triclinic'
loop_
_space_group_symop_operation_xyz
x,y,z
-x,-y,-z
loop_
_atom_site_type_symbol
_atom_site_label
_atom_site_fract_x
_atom_site_fract_y
_atom_site_fract_z
Si Si1 0.706834 0.995301 0.800746
Si Si2 0.911717 0.404684 0.520928
Si Si3 0.153716 0.542894 0.113415
Si Si4 0.694547 0.608237 0.278677
Si Si5 0.002106 0.029931 0.116785
Si Si6 0.518777 0.858412 0.809452
Si Si7 0.016645 0.238837 0.355736
Si Si8 0.382938 0.273922 0.423806
O O1 0.855286 0.918316 0.013896
O O2 0.620471 0.930078 0.817472
O O3 0.630089 0.862345 0.652564
O O4 0.571138 0.935193 0.363278
O O5 0.998769 0.530158 0.683048
O O6 0.000000 0.500000 0.500000
O O7 0.772270 0.509190 0.317715
O O8 0.895651 0.120219 0.632738
O O9 0.250660 0.386186 0.237191
O O10 0.250187 0.710101 0.257225
O O11 0.093015 0.739336 0.884388
O O12 0.037219 0.314962 0.076227
O O13 0.585983 0.383808 0.261641
O O14 0.821983 0.707060 0.481706
O O15 0.610798 0.806539 0.047973
O O16 0.000000 0.000000 0.000000
O O17 0.000000 0.000000 0.500000
O O18 0.500000 0.500000 0.500000
#
# Coordination Sequence:
#
# PCOD9009281 Si02
#       8
#     2   2   2   2   2   2   2   2
#     4  12  26  43  72 104 138 187 236 286 361 440
#     4  10  21  39  67  99 136 188 233 291 358 424
#     4  12  25  45  71 107 141 187 236 302 365 414
#     4   9  22  40  71  95 140 185 229 293 347 422
#     4  12  22  44  70 106 146 177 238 309 360 417
#     4  11  22  44  68 100 138 190 238 279 356 423
#     4  10  22  40  67  99 142 181 234 292 363 417
#     4  12  26  44  71 100 140 183 233 292 348 424
#
# _framework density 22.807265000000001
#
# number of rings (size 3 to 8) (size 9 to 14) (size 15 to 20)
#    0.750    0.250    3.750    3.000    3.500    0.000 
#    0.000    0.000    2.750    1.500    0.000    0.000 
#    0.000    0.000    0.000    0.000    0.000    0.000 
#
# Total GULP energy -89221.972264 kJ/mol
# GULP energy per Si atom -5576.373267 kJ/mol
# Density = 2.275535 g / cm^3
# Si number density = 22.807265 Si / 1000 Ang^3
#
#
#
# Elastic Constant Matrix: (Units=GPa)
#
#
# Indices 1 2 3 4 5 6 
#
# 1 63.3848 28.0020 19.6063 9.4973 -1.5537 -1.6977
# 2 28.0020 133.0652 46.9751 1.7163 -1.6805 -3.8141
# 3 19.6063 46.9751 135.7012 -15.4407 9.3814 -0.8509
# 4 9.4973 1.7163 -15.4407 48.8733 -1.5854 7.0093
# 5 -1.5537 -1.6805 9.3814 -1.5854 21.7448 12.7962
# 6 -1.6977 -3.8141 -0.8509 7.0093 12.7962 50.1950
#
#
#
# Elastic Compliance Matrix: (Units=1/GPa)
#
#
# Indices 1 2 3 4 5 6 
#
# 1 0.018473 -0.003024 -0.002193 -0.004217 0.001374 0.000596
# 2 -0.003024 0.009223 -0.002937 -0.000647 0.001577 0.000237
# 3 -0.002193 -0.002937 0.009391 0.003269 -0.004526 0.000559
# 4 -0.004217 -0.000647 0.003269 0.022968 0.002212 -0.003908
# 5 0.001374 0.001577 -0.004526 0.002212 0.057003 -0.014751
# 6 0.000596 0.000237 0.000559 -0.003908 -0.014751 0.024276
#
#
# Mechanical properties :
#
#
# Convention : Reuss Voigt Hill
#
# Bulk Modulus (GPa) = 48.12731 57.92423 53.02577
# Shear Modulus (GPa) = 30.38231 40.00047 35.19139
#
# Velocity S-wave (km/s) = 3.65380 4.19244 3.93235
# Velocity P-wave (km/s) = 6.24082 6.99198 6.62705
#
# Compressibility (1/GPa) = 0.02077823
#
# Stress axis : x y z
#
# Youngs Moduli (GPa) = 54.13407 108.41939 106.48380
#
# Poissons Ratio (x) = 0.32789 0.23354
# Poissons Ratio (y) = 0.16372 0.31275
# Poissons Ratio (z) = 0.11872 0.31843
#
# Static dielectric constant tensor:
#      x y z
#    x 2.096160 -0.009380 -0.169560 
#    y -0.009380 1.916840 0.026690 
#    z -0.169560 0.026690 2.261930 
# 
# From -- ./inp_files/579664.got.cif
#   From: 2010.05.17/outbox.cif.g08.bks.cpg/sg2_290_cif.got.tgz:579664.got - 2010.06.03 11:33:40.
