data_PCOD9009714
_publ_section_title
;
Structure prediction by ZEFSAII (Michael W. Deem and Ramdas Pophale) SiO2 
 PCOD9009714
Probable space group: P -1
;
_chemical_formula_sum "Si O2"
_cell_formula_units_Z 16
_cell_length_a 12.725295
_cell_length_b 14.848596
_cell_length_c 13.468906
_cell_angle_alpha 51.533575
_cell_angle_beta 69.675770
_cell_angle_gamma 26.714942
_cell_volume 722.062860
_symmetry_space_group_name_H-M "P -1"
_symmetry_group_IT_number 2
_symmetry_cell_setting 'triclinic'
loop_
_space_group_symop_operation_xyz
x,y,z
-x,-y,-z
loop_
_atom_site_type_symbol
_atom_site_label
_atom_site_fract_x
_atom_site_fract_y
_atom_site_fract_z
Si Si1 0.227551 0.273200 0.493377
Si Si2 0.087982 0.784088 0.923465
Si Si3 0.052524 0.241736 0.824275
Si Si4 0.477557 0.751675 0.304516
Si Si5 0.883543 0.871000 0.464450
Si Si6 0.724708 0.141413 0.142549
Si Si7 0.395319 0.210968 0.947749
Si Si8 0.252178 0.117203 0.303945
O O1 0.155211 0.223548 0.496656
O O2 0.000000 0.500000 0.500000
O O3 0.168392 0.443936 0.331767
O O4 0.540748 0.987812 0.636823
O O5 0.141217 0.858894 0.901166
O O6 0.393126 0.460624 0.994067
O O7 0.816278 0.040055 0.762099
O O8 0.020403 0.759699 0.051604
O O9 0.078497 0.132728 0.796443
O O10 0.376507 0.986986 0.903951
O O11 0.558532 0.731980 0.186414
O O12 0.782388 0.406193 0.470382
O O13 0.403631 0.919874 0.293657
O O14 0.796933 0.940108 0.560531
O O15 0.703206 0.120992 0.278181
O O16 0.056444 0.535270 0.860536
O O17 0.500000 0.000000 0.000000
#
# Coordination Sequence:
#
# PCOD9009714 Si02
#       8
#     2   2   2   2   2   2   2   2
#     4  12  22  39  61  92 122 154 199 241 295 358
#     4  10  24  40  61  88 115 155 202 247 293 352
#     4  11  21  41  63  85 123 156 193 246 299 351
#     4  10  21  40  57  83 120 153 200 243 294 354
#     4  11  23  39  60  91 121 155 199 243 293 359
#     4  11  22  40  62  88 117 152 203 247 295 349
#     4  10  23  37  56  90 121 157 203 238 288 363
#     4  11  22  38  60  82 124 163 189 244 301 345
#
# _framework density 22.158735
#
# number of rings (size 3 to 8) (size 9 to 14) (size 15 to 20)
#    0.000    1.250    2.500    3.750    0.000    3.000 
#    0.000    0.625    0.000    0.000    0.000    0.000 
#    0.000    0.000    0.000    0.000    0.000    0.000 
#
# Total GULP energy -89429.193460 kJ/mol
# GULP energy per Si atom -5589.324591 kJ/mol
# Density = 2.210830 g / cm^3
# Si number density = 22.158735 Si / 1000 Ang^3
#
#
#
# Elastic Constant Matrix: (Units=GPa)
#
#
# Indices 1 2 3 4 5 6 
#
# 1 77.7426 9.0492 33.1637 -9.0409 8.7306 -18.7359
# 2 9.0492 61.9219 11.4256 -12.1580 13.0262 -8.8397
# 3 33.1637 11.4256 60.4625 -16.2473 14.3710 -17.9241
# 4 -9.0409 -12.1580 -16.2473 39.3479 -13.5440 10.5080
# 5 8.7306 13.0262 14.3710 -13.5440 35.5588 -7.1362
# 6 -18.7359 -8.8397 -17.9241 10.5080 -7.1362 28.5638
#
#
#
# Elastic Compliance Matrix: (Units=1/GPa)
#
#
# Indices 1 2 3 4 5 6 
#
# 1 0.017860 -0.000356 -0.007943 -0.001196 -0.000088 0.007038
# 2 -0.000356 0.018273 -0.000498 0.002983 -0.004699 0.002837
# 3 -0.007943 -0.000498 0.025772 0.004914 -0.004848 0.007789
# 4 -0.001196 0.002983 0.004914 0.032763 0.008340 -0.006747
# 5 -0.000088 -0.004699 -0.004848 0.008340 0.035239 0.001182
# 6 0.007038 0.002837 0.007789 -0.006747 0.001182 0.048169
#
#
# Mechanical properties :
#
#
# Convention : Reuss Voigt Hill
#
# Bulk Modulus (GPa) = 22.56795 34.15599 28.36197
# Shear Modulus (GPa) = 23.75993 30.45999 27.10996
#
# Velocity S-wave (km/s) = 3.27809 3.71162 3.50157
# Velocity P-wave (km/s) = 4.95324 5.81514 5.40141
#
# Compressibility (1/GPa) = 0.04431062
#
# Stress axis : x y z
#
# Youngs Moduli (GPa) = 55.99204 54.72650 38.80222
#
# Poissons Ratio (x) = 0.01948 0.30820
# Poissons Ratio (y) = 0.01994 0.01932
# Poissons Ratio (z) = 0.44473 0.02725
#
# Static dielectric constant tensor:
#      x y z
#    x 1.808640 -0.031690 0.044530 
#    y -0.031690 1.854360 -0.008040 
#    z 0.044530 -0.008040 1.845870 
# 
# From -- ./inp_files/522341.got.cif
#   From: 2010.05.17/outbox.cif.g08.bks.cpg/sg2_262_cif.got.tgz:522341.got - 2010.06.03 11:33:40.
