data_PCOD9009719
_publ_section_title
;
Structure prediction by ZEFSAII (Michael W. Deem and Ramdas Pophale) SiO2 
 PCOD9009719
Probable space group: P -1
;
_chemical_formula_sum "Si O2"
_cell_formula_units_Z 16
_cell_length_a 5.631701
_cell_length_b 9.890815
_cell_length_c 23.242769
_cell_angle_alpha 135.900674
_cell_angle_beta 59.974614
_cell_angle_gamma 125.671630
_cell_volume 724.254356
_symmetry_space_group_name_H-M "P -1"
_symmetry_group_IT_number 2
_symmetry_cell_setting 'triclinic'
loop_
_space_group_symop_operation_xyz
x,y,z
-x,-y,-z
loop_
_atom_site_type_symbol
_atom_site_label
_atom_site_fract_x
_atom_site_fract_y
_atom_site_fract_z
Si Si1 0.307029 0.438411 0.642733
Si Si2 0.274397 0.726304 0.103937
Si Si3 0.891408 0.627694 0.474612
Si Si4 0.215198 0.146913 0.239314
Si Si5 0.422633 0.484735 0.908231
Si Si6 0.770965 0.580515 0.781432
Si Si7 0.491850 0.800499 0.380226
Si Si8 0.844266 0.178167 0.388492
O O1 0.596193 0.632357 0.686062
O O2 0.265649 0.220809 0.612086
O O3 0.324752 0.403813 0.562293
O O4 0.053762 0.517060 0.719274
O O5 0.428155 0.655862 0.117514
O O6 0.912436 0.627790 0.111227
O O7 0.359346 0.974794 0.170530
O O8 0.391521 0.647208 0.008780
O O9 0.202233 0.729720 0.433525
O O10 0.919871 0.764554 0.569754
O O11 0.838806 0.394729 0.431900
O O12 0.171712 0.213168 0.200502
O O13 0.927497 0.068680 0.290518
O O14 0.650418 0.591791 0.862260
O O15 0.529560 0.379431 0.718206
O O16 0.558819 0.013209 0.403416
#
# Coordination Sequence:
#
# PCOD9009719 Si02
#       8
#     2   2   2   2   2   2   2   2
#     4  10  21  40  57  87 129 158 212 275 318 390
#     4  10  24  43  68  99 130 167 223 266 323 400
#     4  10  22  42  56  86 126 161 215 275 324 390
#     4  11  23  39  61  93 122 167 220 264 323 398
#     4  10  23  44  67  97 134 170 211 275 325 386
#     4  10  22  39  62  88 131 165 208 272 324 387
#     4  10  21  40  59  89 121 165 216 269 327 391
#     4  11  21  39  62  84 123 168 210 271 333 380
#
# _framework density 22.091688999999999
#
# number of rings (size 3 to 8) (size 9 to 14) (size 15 to 20)
#    0.000    1.750    3.750    1.125    7.000    2.500 
#    2.250    0.625    0.000    0.000    0.000    0.000 
#    0.000    0.000    0.000    0.000    0.000    0.000 
#
# Total GULP energy -89226.915796 kJ/mol
# GULP energy per Si atom -5576.682237 kJ/mol
# Density = 2.204141 g / cm^3
# Si number density = 22.091689 Si / 1000 Ang^3
#
#
#
# Elastic Constant Matrix: (Units=GPa)
#
#
# Indices 1 2 3 4 5 6 
#
# 1 77.6305 39.1549 22.4086 -17.9828 -9.9513 -14.7630
# 2 39.1549 161.7337 57.9170 -20.8889 -13.8714 -21.7706
# 3 22.4086 57.9170 94.7387 -23.0472 -18.1030 -14.1007
# 4 -17.9828 -20.8889 -23.0472 42.3370 -0.8562 -0.5444
# 5 -9.9513 -13.8714 -18.1030 -0.8562 28.1072 0.8681
# 6 -14.7630 -21.7706 -14.1007 -0.5444 0.8681 20.5060
#
#
#
# Elastic Compliance Matrix: (Units=1/GPa)
#
#
# Indices 1 2 3 4 5 6 
#
# 1 0.018411 -0.001804 0.001921 0.008274 0.006729 0.012596
# 2 -0.001804 0.009026 -0.003476 0.001900 0.001454 0.005883
# 3 0.001921 -0.003476 0.017931 0.009201 0.010490 0.009823
# 4 0.008274 0.001900 0.009201 0.033480 0.010357 0.014751
# 5 0.006729 0.001454 0.010490 0.010357 0.045381 0.011955
# 6 0.012596 0.005883 0.009823 0.014751 0.011955 0.070721
#
#
# Mechanical properties :
#
#
# Convention : Reuss Voigt Hill
#
# Bulk Modulus (GPa) = 25.87226 63.67377 44.77302
# Shear Modulus (GPa) = 23.30456 32.49819 27.90138
#
# Velocity S-wave (km/s) = 3.25145 3.83960 3.55770
# Velocity P-wave (km/s) = 5.08258 6.96719 6.09813
#
# Compressibility (1/GPa) = 0.03865143
#
# Stress axis : x y z
#
# Youngs Moduli (GPa) = 54.31408 110.78555 55.77061
#
# Poissons Ratio (x) = 0.19987 -0.10716
# Poissons Ratio (y) = 0.09799 0.19385
# Poissons Ratio (z) = -0.10436 0.38507
#
# Static dielectric constant tensor:
#      x y z
#    x 1.957990 0.045100 0.039000 
#    y 0.045100 1.837410 -0.005180 
#    z 0.039000 -0.005180 1.765470 
# 
# From -- ./inp_files/50974.got.cif
#   From: 2010.05.17/outbox.cif.g08.bks.cpg/sg2_26_cif.got.tgz:50974.got - 2010.06.03 11:33:40.
