data_PCOD9009488
_publ_section_title
;
Structure prediction by ZEFSAII (Michael W. Deem and Ramdas Pophale) SiO2 
 PCOD9009488
Probable space group: P -1
;
_chemical_formula_sum "Si O2"
_cell_formula_units_Z 16
_cell_length_a 8.880193
_cell_length_b 12.075101
_cell_length_c 17.207839
_cell_angle_alpha 27.704296
_cell_angle_beta 131.706880
_cell_angle_gamma 131.148217
_cell_volume 627.659637
_symmetry_space_group_name_H-M "P -1"
_symmetry_group_IT_number 2
_symmetry_cell_setting 'triclinic'
loop_
_space_group_symop_operation_xyz
x,y,z
-x,-y,-z
loop_
_atom_site_type_symbol
_atom_site_label
_atom_site_fract_x
_atom_site_fract_y
_atom_site_fract_z
Si Si1 0.946718 0.771982 0.741349
Si Si2 0.249766 0.764356 0.623866
Si Si3 0.217736 0.523611 0.605067
Si Si4 0.898547 0.341204 0.825168
Si Si5 0.550196 0.621932 0.524263
Si Si6 0.798186 0.221510 0.031080
Si Si7 0.633639 0.866683 0.995726
Si Si8 0.616891 0.191166 0.199447
O O1 0.139964 0.713538 0.793962
O O2 0.802775 0.509514 0.870215
O O3 0.057632 0.864426 0.802575
O O4 0.839537 0.990272 0.542415
O O5 0.280310 0.739314 0.557388
O O6 0.421236 0.771787 0.745651
O O7 0.087217 0.515724 0.741981
O O8 0.378228 0.550935 0.573389
O O9 0.251550 0.293379 0.810564
O O10 0.000000 0.500000 0.500000
O O11 0.749114 0.525736 0.678578
O O12 0.900658 0.208222 0.991080
O O13 0.785135 0.120141 0.869888
O O14 0.500000 0.500000 0.500000
O O15 0.594424 0.906826 0.353321
O O16 0.564906 0.087835 0.051150
O O17 0.533602 0.739032 0.961290
#
# Coordination Sequence:
#
# PCOD9009488 Si02
#       8
#     2   2   2   2   2   2   2   2
#     4  10  21  40  71 110 145 181 237 299 359 416
#     4  12  26  46  72 110 152 190 230 298 365 430
#     4  12  31  49  67 106 150 191 241 298 372 426
#     4  12  22  42  76 105 140 190 240 300 348 427
#     4  12  24  46  76 107 138 188 246 294 356 429
#     4  10  21  39  69 110 141 180 245 303 347 415
#     4  11  26  44  71 106 141 191 247 295 354 423
#     4  11  23  44  76 108 140 190 245 292 352 430
#
# _framework density 25.491523000000001
#
# number of rings (size 3 to 8) (size 9 to 14) (size 15 to 20)
#    0.000    0.750    5.000    2.250    1.750    1.500 
#    0.000    0.000    0.000    0.000    0.000    0.000 
#    0.000    0.000    0.000    0.000    0.000    0.000 
#
# Total GULP energy -89489.997843 kJ/mol
# GULP energy per Si atom -5593.124865 kJ/mol
# Density = 2.543350 g / cm^3
# Si number density = 25.491523 Si / 1000 Ang^3
#
#
#
# Elastic Constant Matrix: (Units=GPa)
#
#
# Indices 1 2 3 4 5 6 
#
# 1 111.4312 36.8861 19.9176 7.1652 -14.0899 -17.5107
# 2 36.8861 124.0793 35.2299 15.3437 -10.5813 -23.3466
# 3 19.9176 35.2299 100.8909 12.0794 -12.5506 3.9482
# 4 7.1652 15.3437 12.0794 62.7050 -5.0645 -15.1035
# 5 -14.0899 -10.5813 -12.5506 -5.0645 24.4016 0.5856
# 6 -17.5107 -23.3466 3.9482 -15.1035 0.5856 43.8413
#
#
#
# Elastic Compliance Matrix: (Units=1/GPa)
#
#
# Indices 1 2 3 4 5 6 
#
# 1 0.010964 -0.001927 -0.001098 0.000707 0.004990 0.003629
# 2 -0.001927 0.010715 -0.003308 -0.000412 0.001625 0.005071
# 3 -0.001098 -0.003308 0.012171 -0.002077 0.003858 -0.004063
# 4 0.000707 -0.000412 -0.002077 0.018149 0.002773 0.006466
# 5 0.004990 0.001625 0.003858 0.002773 0.047059 0.002838
# 6 0.003629 0.005071 -0.004063 0.006466 0.002838 0.029515
#
#
# Mechanical properties :
#
#
# Convention : Reuss Voigt Hill
#
# Bulk Modulus (GPa) = 47.20282 57.82987 52.51634
# Shear Modulus (GPa) = 33.71550 42.48075 38.09813
#
# Velocity S-wave (km/s) = 3.64072 4.08667 3.87012
# Velocity P-wave (km/s) = 6.01917 6.70842 6.37312
#
# Compressibility (1/GPa) = 0.02118518
#
# Stress axis : x y z
#
# Youngs Moduli (GPa) = 91.20816 93.32635 82.16151
#
# Poissons Ratio (x) = 0.17982 0.09018
# Poissons Ratio (y) = 0.17574 0.27180
# Poissons Ratio (z) = 0.10010 0.30874
#
# Static dielectric constant tensor:
#      x y z
#    x 2.079220 -0.039740 -0.024070 
#    y -0.039740 2.177850 0.080680 
#    z -0.024070 0.080680 2.013350 
# 
# From -- ./inp_files/559591.got.cif
#   From: 2010.05.17/outbox.cif.g08.bks.cpg/sg2_280_cif.got.tgz:559591.got - 2010.06.03 11:33:40.
