data_PCOD9009968
_publ_section_title
;
Structure prediction by ZEFSAII (Michael W. Deem and Ramdas Pophale) SiO2 
 PCOD9009968
Probable space group: P -1
;
_chemical_formula_sum "Si O2"
_cell_formula_units_Z 16
_cell_length_a 21.938419
_cell_length_b 8.429743
_cell_length_c 18.971404
_cell_angle_alpha 43.268201
_cell_angle_beta 161.504220
_cell_angle_gamma 137.325663
_cell_volume 746.597864
_symmetry_space_group_name_H-M "P -1"
_symmetry_group_IT_number 2
_symmetry_cell_setting 'triclinic'
loop_
_space_group_symop_operation_xyz
x,y,z
-x,-y,-z
loop_
_atom_site_type_symbol
_atom_site_label
_atom_site_fract_x
_atom_site_fract_y
_atom_site_fract_z
Si Si1 0.259476 0.650352 0.046148
Si Si2 0.122650 0.180325 0.132127
Si Si3 0.883456 0.697753 0.285106
Si Si4 0.038129 0.113668 0.428848
Si Si5 0.867504 0.993310 0.651791
Si Si6 0.571402 0.104177 0.469722
Si Si7 0.671162 0.626468 0.436806
Si Si8 0.544942 0.867931 0.815797
O O1 0.165286 0.441263 0.063366
O O2 0.445756 0.600596 0.222576
O O3 0.338676 0.883659 0.104595
O O4 0.096322 0.697669 0.797094
O O5 0.054286 0.120649 0.156272
O O6 0.329713 0.099836 0.386996
O O7 0.000000 0.000000 0.000000
O O8 0.000000 0.500000 0.500000
O O9 0.647693 0.668730 0.028490
O O10 0.955353 0.898687 0.356125
O O11 0.968815 0.809993 0.268544
O O12 0.256011 0.232482 0.601193
O O13 0.000000 0.000000 0.500000
O O14 0.794122 0.781354 0.583806
O O15 0.682493 0.123226 0.420404
O O16 0.704477 0.361367 0.549056
O O17 0.435423 0.148550 0.241710
O O18 0.500000 0.000000 0.500000
#
# Coordination Sequence:
#
# PCOD9009968 Si02
#       8
#     2   2   2   2   2   2   2   2
#     4  10  21  41  61  84 122 165 198 243 307 364
#     4  11  23  37  59  90 125 160 202 248 302 364
#     4  10  22  41  64  87 115 161 205 253 304 356
#     4  10  23  42  61  88 118 156 206 255 303 359
#     4   9  22  40  60  87 123 163 199 243 306 365
#     4  11  22  35  58  94 122 155 202 250 295 358
#     4  10  21  40  61  88 122 156 204 242 304 363
#     4   9  22  39  58  87 121 154 202 245 302 357
#
# _framework density 21.430547000000001
#
# number of rings (size 3 to 8) (size 9 to 14) (size 15 to 20)
#    0.000    2.000    1.250    0.750    3.500    6.500 
#    0.000    5.000    0.000    0.000    0.000    0.000 
#    0.000    0.000    0.000    0.000    0.000    0.000 
#
# Total GULP energy -89162.312483 kJ/mol
# GULP energy per Si atom -5572.644530 kJ/mol
# Density = 2.138177 g / cm^3
# Si number density = 21.430547 Si / 1000 Ang^3
#
#
#
# Elastic Constant Matrix: (Units=GPa)
#
#
# Indices 1 2 3 4 5 6 
#
# 1 118.3555 31.8767 25.2650 -4.4926 -17.1154 31.7787
# 2 31.8767 45.5314 23.2609 -15.8299 -7.1147 14.4972
# 3 25.2650 23.2609 88.6090 -14.3314 -6.9079 10.4368
# 4 -4.4926 -15.8299 -14.3314 29.5555 5.6116 -0.4525
# 5 -17.1154 -7.1147 -6.9079 5.6116 23.0117 -9.8851
# 6 31.7787 14.4972 10.4368 -0.4525 -9.8851 30.6411
#
#
#
# Elastic Compliance Matrix: (Units=1/GPa)
#
#
# Indices 1 2 3 4 5 6 
#
# 1 0.013342 -0.006078 -0.001240 -0.002809 0.004425 -0.009153
# 2 -0.006078 0.037367 -0.004236 0.017457 -0.003079 -0.010669
# 3 -0.001240 -0.004236 0.013568 0.004036 0.000361 -0.001155
# 4 -0.002809 0.017457 0.004036 0.046650 -0.010968 -0.009570
# 5 0.004425 -0.003079 0.000361 -0.010968 0.054689 0.014226
# 6 -0.009153 -0.010669 -0.001155 -0.009570 0.014226 0.052018
#
#
# Mechanical properties :
#
#
# Convention : Reuss Voigt Hill
#
# Bulk Modulus (GPa) = 24.29018 45.92235 35.10626
# Shear Modulus (GPa) = 19.64901 28.11454 23.88177
#
# Velocity S-wave (km/s) = 3.03127 3.62593 3.34185
# Velocity P-wave (km/s) = 4.85906 6.24538 5.59532
#
# Compressibility (1/GPa) = 0.04116889
#
# Stress axis : x y z
#
# Youngs Moduli (GPa) = 74.95355 26.76133 73.70266
#
# Poissons Ratio (x) = 0.16265 0.09138
# Poissons Ratio (y) = 0.45556 0.31223
# Poissons Ratio (z) = 0.09293 0.11337
#
# Static dielectric constant tensor:
#      x y z
#    x 1.870810 0.030260 0.024130 
#    y 0.030260 1.785230 -0.046520 
#    z 0.024130 -0.046520 1.911550 
# 
# From -- ./inp_files/307120.got.cif
#   From: 2010.05.17/outbox.cif.g08.bks.cpg/sg2_154_cif.got.tgz:307120.got - 2010.06.03 11:33:40.
