data_PCOD9009191
_publ_section_title
;
Structure prediction by ZEFSAII (Michael W. Deem and Ramdas Pophale) SiO2 
 PCOD9009191
Probable space group: P -1
;
_chemical_formula_sum "Si O2"
_cell_formula_units_Z 14
_cell_length_a 12.877505
_cell_length_b 12.528070
_cell_length_c 12.180919
_cell_angle_alpha 145.919081
_cell_angle_beta 43.024686
_cell_angle_gamma 150.393282
_cell_volume 543.614421
_symmetry_space_group_name_H-M "P -1"
_symmetry_group_IT_number 2
_symmetry_cell_setting 'triclinic'
loop_
_space_group_symop_operation_xyz
x,y,z
-x,-y,-z
loop_
_atom_site_type_symbol
_atom_site_label
_atom_site_fract_x
_atom_site_fract_y
_atom_site_fract_z
Si Si1 0.628956 0.292922 0.425850
Si Si2 0.039099 0.107302 0.729216
Si Si3 0.719344 0.569707 0.384750
Si Si4 0.577556 0.359384 0.858735
Si Si5 0.055534 0.748953 0.761641
Si Si6 0.269324 0.001258 0.603136
Si Si7 0.704686 0.797112 0.882624
O O1 0.659723 0.341357 0.313148
O O2 0.794271 0.282216 0.330255
O O3 0.396155 0.032619 0.426432
O O4 0.664248 0.541370 0.660590
O O5 0.189422 0.358981 0.748385
O O6 0.176274 0.116185 0.722549
O O7 0.917485 0.841102 0.524702
O O8 0.836046 0.015109 0.871040
O O9 0.500000 0.500000 0.500000
O O10 0.819169 0.527586 0.796295
O O11 0.447573 0.141809 0.678966
O O12 0.500000 0.500000 0.000000
O O13 0.506922 0.292517 0.983043
O O14 0.079670 0.764750 0.624842
O O15 0.148201 0.028349 0.976935
#
# Coordination Sequence:
#
# PCOD9009191 Si02
#       7
#     2   2   2   2   2   2   2
#     4  11  23  45  66  98 134 177 221 277 331 391
#     4  10  21  39  67  95 126 175 218 276 331 380
#     4  10  21  40  66  98 125 169 233 271 324 402
#     4  11  21  40  62  96 133 179 218 261 325 406
#     4  11  26  41  65 101 139 174 220 270 332 399
#     4  11  22  39  62  99 135 170 222 267 329 400
#     4  10  23  43  63  93 134 175 218 269 328 394
#
# _framework density 25.753546
#
# number of rings (size 3 to 8) (size 9 to 14) (size 15 to 20)
#    0.000    1.429    2.857    2.143    2.000    2.857 
#   10.286    0.714    0.000    4.286    0.000    0.000 
#    0.000    0.000    0.000    0.000    0.000    0.000 
#
# Total GULP energy -78080.207000 kJ/mol
# GULP energy per Si atom -5577.157643 kJ/mol
# Density = 2.569493 g / cm^3
# Si number density = 25.753546 Si / 1000 Ang^3
#
#
#
# Elastic Constant Matrix: (Units=GPa)
#
#
# Indices 1 2 3 4 5 6 
#
# 1 119.6782 74.3356 32.7577 -29.5128 3.3191 -20.9342
# 2 74.3356 241.5698 45.2421 -82.0409 7.6348 -16.0345
# 3 32.7577 45.2421 94.4693 -23.4452 -13.6111 -6.4386
# 4 -29.5128 -82.0409 -23.4452 72.9486 1.9717 23.4731
# 5 3.3191 7.6348 -13.6111 1.9717 35.0983 -15.6118
# 6 -20.9342 -16.0345 -6.4386 23.4731 -15.6118 55.3611
#
#
#
# Elastic Compliance Matrix: (Units=1/GPa)
#
#
# Indices 1 2 3 4 5 6 
#
# 1 0.011337 -0.003091 -0.002364 -0.000797 0.000303 0.003540
# 2 -0.003091 0.008321 -0.001588 0.009006 -0.004423 -0.004010
# 3 -0.002364 -0.001588 0.013425 0.000861 0.006468 0.001666
# 4 -0.000797 0.009006 0.000861 0.027789 -0.008325 -0.011723
# 5 0.000303 -0.004423 0.006468 -0.008325 0.038632 0.014010
# 6 0.003540 -0.004010 0.001666 -0.011723 0.014010 0.027356
#
#
# Mechanical properties :
#
#
# Convention : Reuss Voigt Hill
#
# Bulk Modulus (GPa) = 52.64135 84.48757 68.56446
# Shear Modulus (GPa) = 33.94946 52.90705 43.42826
#
# Velocity S-wave (km/s) = 3.63470 4.53742 4.11092
# Velocity P-wave (km/s) = 6.17248 7.76713 7.01527
#
# Compressibility (1/GPa) = 0.01899647
#
# Stress axis : x y z
#
# Youngs Moduli (GPa) = 88.20637 120.18309 74.48852
#
# Poissons Ratio (x) = 0.37151 0.17606
# Poissons Ratio (y) = 0.27266 0.11831
# Poissons Ratio (z) = 0.20848 0.19089
#
# Static dielectric constant tensor:
#      x y z
#    x 2.005290 -0.071930 -0.004910 
#    y -0.071930 2.227930 0.057130 
#    z -0.004910 0.057130 2.229370 
# 
# From -- ./inp_files/455075.got.cif
#   From: 2010.05.17/outbox.cif.g08.bks.cpg/sg2_228_cif.got.tgz:455075.got - 2010.06.03 11:33:40.
