data_PCOD9009874
_publ_section_title
;
Structure prediction by ZEFSAII (Michael W. Deem and Ramdas Pophale) SiO2 
 PCOD9009874
Probable space group: P -1
;
_chemical_formula_sum "Si O2"
_cell_formula_units_Z 16
_cell_length_a 7.537290
_cell_length_b 15.813477
_cell_length_c 13.210582
_cell_angle_alpha 37.529338
_cell_angle_beta 94.255431
_cell_angle_gamma 70.594612
_cell_volume 731.943859
_symmetry_space_group_name_H-M "P -1"
_symmetry_group_IT_number 2
_symmetry_cell_setting 'triclinic'
loop_
_space_group_symop_operation_xyz
x,y,z
-x,-y,-z
loop_
_atom_site_type_symbol
_atom_site_label
_atom_site_fract_x
_atom_site_fract_y
_atom_site_fract_z
Si Si1 0.733505 0.456058 0.010510
Si Si2 0.979734 0.818756 0.428326
Si Si3 0.611652 0.924869 0.184475
Si Si4 0.441854 0.467980 0.694267
Si Si5 0.140656 0.258401 0.928888
Si Si6 0.131249 0.826167 0.879318
Si Si7 0.929191 0.585051 0.765986
Si Si8 0.736161 0.548506 0.507346
O O1 0.730998 0.587944 0.806011
O O2 0.500000 0.500000 0.000000
O O3 0.859353 0.271976 0.127067
O O4 0.892126 0.440401 0.120578
O O5 0.845363 0.893662 0.244720
O O6 0.846663 0.762989 0.534697
O O7 0.238143 0.638435 0.589373
O O8 0.958689 0.975282 0.332469
O O9 0.675114 0.730386 0.374446
O O10 0.500000 0.000000 0.000000
O O11 0.410338 0.090076 0.089531
O O12 0.584689 0.516550 0.597159
O O13 0.332901 0.434081 0.629652
O O14 0.615478 0.302248 0.934557
O O15 0.070393 0.414159 0.857440
O O16 0.000874 0.371956 0.712965
O O17 0.030064 0.172296 0.048703
#
# Coordination Sequence:
#
# PCOD9009874 Si02
#       8
#     2   2   2   2   2   2   2   2
#     4  10  22  44  73  94 127 168 215 271 338 394
#     4  12  24  38  64  97 130 165 218 264 326 387
#     4  12  25  35  60  94 134 173 215 261 316 376
#     4  10  22  39  65  88 128 171 221 270 315 384
#     4  10  22  43  62  87 135 172 214 267 318 385
#     4  10  23  42  66  94 124 170 213 268 332 381
#     4  10  23  43  67  98 128 170 217 271 330 395
#     4  10  21  40  60  90 123 178 224 262 322 377
#
# _framework density 21.859598999999999
#
# number of rings (size 3 to 8) (size 9 to 14) (size 15 to 20)
#    0.000    1.500    1.250    3.000    5.250    1.500 
#    2.250    5.625    0.000    0.000    0.000    0.000 
#    0.000    0.000    0.000    0.000    0.000    0.000 
#
# Total GULP energy -89402.522827 kJ/mol
# GULP energy per Si atom -5587.657677 kJ/mol
# Density = 2.180985 g / cm^3
# Si number density = 21.859599 Si / 1000 Ang^3
#
#
#
# Elastic Constant Matrix: (Units=GPa)
#
#
# Indices 1 2 3 4 5 6 
#
# 1 115.5238 17.8900 34.1172 -17.3376 -11.9571 1.0765
# 2 17.8900 80.3216 23.2007 -4.7652 -6.2397 18.5843
# 3 34.1172 23.2007 93.1082 -25.4721 -7.9158 -0.4823
# 4 -17.3376 -4.7652 -25.4721 24.5255 7.3911 -1.8177
# 5 -11.9571 -6.2397 -7.9158 7.3911 37.7533 -8.4020
# 6 1.0765 18.5843 -0.4823 -1.8177 -8.4020 32.0970
#
#
#
# Elastic Compliance Matrix: (Units=1/GPa)
#
#
# Indices 1 2 3 4 5 6 
#
# 1 0.010359 -0.001619 -0.002006 0.004414 0.002027 0.001340
# 2 -0.001619 0.016072 -0.004351 -0.003166 -0.000278 -0.009569
# 3 -0.002006 -0.004351 0.016811 0.015482 -0.000036 0.003707
# 4 0.004414 -0.003166 0.015482 0.061787 -0.007189 0.003535
# 5 0.002027 -0.000278 -0.000036 -0.007189 0.030171 0.007583
# 6 0.001340 -0.009569 0.003707 0.003535 0.007583 0.038892
#
#
# Mechanical properties :
#
#
# Convention : Reuss Voigt Hill
#
# Bulk Modulus (GPa) = 36.64198 48.81882 42.73040
# Shear Modulus (GPa) = 25.10801 33.12488 29.11645
#
# Velocity S-wave (km/s) = 3.39278 3.89697 3.65358
# Velocity P-wave (km/s) = 5.66981 6.52916 6.11460
#
# Compressibility (1/GPa) = 0.02729110
#
# Stress axis : x y z
#
# Youngs Moduli (GPa) = 96.53500 62.22084 59.48500
#
# Poissons Ratio (x) = 0.10072 0.11931
# Poissons Ratio (y) = 0.15626 0.25882
# Poissons Ratio (z) = 0.19361 0.27072
#
# Static dielectric constant tensor:
#      x y z
#    x 1.839540 -0.005650 -0.008540 
#    y -0.005650 1.838590 0.073360 
#    z -0.008540 0.073360 1.821840 
# 
# From -- ./inp_files/505272.got.cif
#   From: 2010.05.17/outbox.cif.g08.bks.cpg/sg2_253_cif.got.tgz:505272.got - 2010.06.03 11:33:40.
