data_PCOD9009450
_publ_section_title
;
Structure prediction by ZEFSAII (Michael W. Deem and Ramdas Pophale) SiO2 
 PCOD9009450
Probable space group: P -1
;
_chemical_formula_sum "Si O2"
_cell_formula_units_Z 16
_cell_length_a 18.738351
_cell_length_b 13.259458
_cell_length_c 11.509126
_cell_angle_alpha 31.875868
_cell_angle_beta 31.020104
_cell_angle_gamma 28.802812
_cell_volume 652.066499
_symmetry_space_group_name_H-M "P -1"
_symmetry_group_IT_number 2
_symmetry_cell_setting 'triclinic'
loop_
_space_group_symop_operation_xyz
x,y,z
-x,-y,-z
loop_
_atom_site_type_symbol
_atom_site_label
_atom_site_fract_x
_atom_site_fract_y
_atom_site_fract_z
Si Si1 0.474494 0.463501 0.270198
Si Si2 0.637841 0.630362 0.709734
Si Si3 0.278995 0.742340 0.674593
Si Si4 0.176971 0.926475 0.272153
Si Si5 0.331395 0.026682 0.158070
Si Si6 0.837550 0.592246 0.803439
Si Si7 0.103407 0.893702 0.147043
Si Si8 0.189896 0.175458 0.623979
O O1 0.452694 0.343167 0.309101
O O2 0.589428 0.302073 0.368355
O O3 0.297033 0.653740 0.380911
O O4 0.543842 0.604774 0.974217
O O5 0.808776 0.377227 0.712803
O O6 0.675460 0.819624 0.492072
O O7 0.335548 0.807679 0.416440
O O8 0.265181 0.523571 0.914100
O O9 0.091961 0.958554 0.740657
O O10 0.146619 0.967490 0.135631
O O11 0.269788 0.031144 0.107413
O O12 0.000000 0.000000 0.500000
O O13 0.186506 0.257841 0.197093
O O14 0.500000 0.000000 0.000000
O O15 0.782662 0.761059 0.604592
O O16 0.014949 0.382159 0.718672
O O17 0.179020 0.960195 0.872320
#
# Coordination Sequence:
#
# PCOD9009450 Si02
#       8
#     2   2   2   2   2   2   2   2
#     4  10  23  39  68  98 137 178 225 279 353 398
#     4  10  21  42  64 100 140 178 214 285 347 413
#     4  11  22  45  67 102 140 178 228 286 343 405
#     4  11  24  49  69  98 143 188 230 290 338 417
#     4  12  27  43  72 101 138 184 235 285 343 410
#     4  10  23  40  64 105 134 175 224 286 341 402
#     4  10  23  42  73 102 132 189 230 270 358 409
#     4  10  21  39  68  99 138 168 227 284 330 420
#
# _framework density 24.537375000000001
#
# number of rings (size 3 to 8) (size 9 to 14) (size 15 to 20)
#    0.000    1.500    2.500    1.500    3.500    3.500 
#    0.000    9.375    0.000    0.000    0.000    0.000 
#    0.000    0.000    0.000    0.000    0.000    0.000 
#
# Total GULP energy -89473.507006 kJ/mol
# GULP energy per Si atom -5592.094188 kJ/mol
# Density = 2.448153 g / cm^3
# Si number density = 24.537375 Si / 1000 Ang^3
#
#
#
# Elastic Constant Matrix: (Units=GPa)
#
#
# Indices 1 2 3 4 5 6 
#
# 1 117.7645 32.7213 21.2718 -2.0651 5.3253 -19.1004
# 2 32.7213 115.2330 7.3230 7.0384 8.3333 -12.0044
# 3 21.2718 7.3230 94.1503 -8.5801 -10.9000 2.0814
# 4 -2.0651 7.0384 -8.5801 35.1542 2.3449 -1.4029
# 5 5.3253 8.3333 -10.9000 2.3449 34.7217 2.8849
# 6 -19.1004 -12.0044 2.0814 -1.4029 2.8849 40.7611
#
#
#
# Elastic Compliance Matrix: (Units=1/GPa)
#
#
# Indices 1 2 3 4 5 6 
#
# 1 0.010404 -0.002208 -0.002471 0.000783 -0.002271 0.004539
# 2 -0.002208 0.009853 -0.000765 -0.002056 -0.002293 0.001998
# 3 -0.002471 -0.000765 0.012025 0.002564 0.004348 -0.002217
# 4 0.000783 -0.002056 0.002564 0.029617 -0.000881 0.000712
# 5 -0.002271 -0.002293 0.004348 -0.000881 0.031474 -0.004220
# 6 0.004539 0.001998 -0.002217 0.000712 -0.004220 0.027685
#
#
# Mechanical properties :
#
#
# Convention : Reuss Voigt Hill
#
# Bulk Modulus (GPa) = 46.73886 49.97556 48.35721
# Shear Modulus (GPa) = 35.95137 39.84954 37.90045
#
# Velocity S-wave (km/s) = 3.83190 4.03430 3.93440
# Velocity P-wave (km/s) = 6.21831 6.48939 6.35529
#
# Compressibility (1/GPa) = 0.02139547
#
# Stress axis : x y z
#
# Youngs Moduli (GPa) = 96.11765 101.49000 83.15896
#
# Poissons Ratio (x) = 0.22409 0.20547
# Poissons Ratio (y) = 0.21223 0.06358
# Poissons Ratio (z) = 0.23749 0.07760
#
# Static dielectric constant tensor:
#      x y z
#    x 1.955420 -0.005120 -0.021020 
#    y -0.005120 1.994870 0.037950 
#    z -0.021020 0.037950 1.937620 
# 
# From -- ./inp_files/471656.got.cif
#   From: 2010.05.17/outbox.cif.g08.bks.cpg/sg2_236_cif.got.tgz:471656.got - 2010.06.03 11:33:40.
