data_PCOD9009135
_publ_section_title
;
Structure prediction by ZEFSAII (Michael W. Deem and Ramdas Pophale) SiO2 
 PCOD9009135
Probable space group: P -1
;
_chemical_formula_sum "Si O2"
_cell_formula_units_Z 14
_cell_length_a 9.995046
_cell_length_b 7.110583
_cell_length_c 11.969053
_cell_angle_alpha 50.861874
_cell_angle_beta 95.570644
_cell_angle_gamma 67.263096
_cell_volume 534.913433
_symmetry_space_group_name_H-M "P -1"
_symmetry_group_IT_number 2
_symmetry_cell_setting 'triclinic'
loop_
_space_group_symop_operation_xyz
x,y,z
-x,-y,-z
loop_
_atom_site_type_symbol
_atom_site_label
_atom_site_fract_x
_atom_site_fract_y
_atom_site_fract_z
Si Si1 0.230479 0.055789 0.180636
Si Si2 0.626951 0.093890 0.985345
Si Si3 0.545849 0.201556 0.491194
Si Si4 0.752414 0.611039 0.479314
Si Si5 0.087310 0.712443 0.831625
Si Si6 0.059189 0.507237 0.673934
Si Si7 0.378771 0.737310 0.766238
O O1 0.066371 0.068593 0.183955
O O2 0.332759 0.871664 0.150322
O O3 0.324660 0.976023 0.334233
O O4 0.173466 0.388957 0.016752
O O5 0.539786 0.405401 0.925449
O O6 0.500000 0.000000 0.000000
O O7 0.799937 0.830189 0.150305
O O8 0.375400 0.439162 0.455876
O O9 0.621514 0.270991 0.367435
O O10 0.500000 0.000000 0.500000
O O11 0.851838 0.441244 0.439296
O O12 0.893208 0.561817 0.592738
O O13 0.635605 0.968333 0.308808
O O14 0.024001 0.694652 0.711492
O O15 0.219737 0.775892 0.790352
#
# Coordination Sequence:
#
# PCOD9009135 Si02
#       7
#     2   2   2   2   2   2   2
#     4  10  21  39  67  89 132 169 208 260 333 368
#     4  11  21  42  65  99 127 165 213 276 315 375
#     4  10  22  40  59  90 131 168 208 261 316 380
#     4  10  23  41  64  94 131 179 205 262 326 386
#     4  10  21  40  66  96 122 171 215 267 316 381
#     4  10  21  42  66  87 136 168 211 261 330 374
#     4  11  23  41  67 101 125 164 225 263 317 380
#
# _framework density 26.172459
#
# number of rings (size 3 to 8) (size 9 to 14) (size 15 to 20)
#    0.000    1.714    2.857    2.571    0.000    3.429 
#    7.714    0.714    0.000    0.000    0.000    0.000 
#    0.000    0.000    0.000    0.000    0.000    0.000 
#
# Total GULP energy -78441.125022 kJ/mol
# GULP energy per Si atom -5602.937502 kJ/mol
# Density = 2.611289 g / cm^3
# Si number density = 26.172459 Si / 1000 Ang^3
#
#
#
# Elastic Constant Matrix: (Units=GPa)
#
#
# Indices 1 2 3 4 5 6 
#
# 1 148.9067 41.8670 44.7826 5.8025 -25.4493 -40.1477
# 2 41.8670 137.4947 28.6988 9.6954 -3.6940 -29.9646
# 3 44.7826 28.6988 90.2971 9.6036 -11.4378 -5.0036
# 4 5.8025 9.6954 9.6036 50.3826 -13.7633 -7.7443
# 5 -25.4493 -3.6940 -11.4378 -13.7633 47.3197 13.0308
# 6 -40.1477 -29.9646 -5.0036 -7.7443 13.0308 55.7374
#
#
#
# Elastic Compliance Matrix: (Units=1/GPa)
#
#
# Indices 1 2 3 4 5 6 
#
# 1 0.010405 -0.000989 -0.004267 0.001635 0.003301 0.006035
# 2 -0.000989 0.008984 -0.002254 -0.001041 -0.001834 0.004199
# 3 -0.004267 -0.002254 0.014086 -0.001942 0.001363 -0.003609
# 4 0.001635 -0.001041 -0.001942 0.022251 0.006228 0.002079
# 5 0.003301 -0.001834 0.001363 0.006228 0.025919 -0.003681
# 6 0.006035 0.004199 -0.003609 0.002079 -0.003681 0.025371
#
#
# Mechanical properties :
#
#
# Convention : Reuss Voigt Hill
#
# Bulk Modulus (GPa) = 54.18563 67.48837 60.83700
# Shear Modulus (GPa) = 39.00512 48.11127 43.55820
#
# Velocity S-wave (km/s) = 3.86464 4.29212 4.08398
# Velocity P-wave (km/s) = 6.37669 7.09965 6.74786
#
# Compressibility (1/GPa) = 0.01845508
#
# Stress axis : x y z
#
# Youngs Moduli (GPa) = 96.11170 111.31081 70.99034
#
# Poissons Ratio (x) = 0.11007 0.30293
# Poissons Ratio (y) = 0.09504 0.16000
# Poissons Ratio (z) = 0.41013 0.25088
#
# Static dielectric constant tensor:
#      x y z
#    x 1.999900 -0.006250 -0.044550 
#    y -0.006250 2.079570 -0.059350 
#    z -0.044550 -0.059350 2.135710 
# 
# From -- ./inp_files/418909.got.cif
#   From: 2010.05.17/outbox.cif.g08.bks.cpg/sg2_210_cif.got.tgz:418909.got - 2010.06.03 11:33:40.
