data_PCOD9009016
_publ_section_title
;
Structure prediction by ZEFSAII (Michael W. Deem and Ramdas Pophale) SiO2 
 PCOD9009016
Probable space group: P -1
;
_chemical_formula_sum "Si O2"
_cell_formula_units_Z 16
_cell_length_a 6.937727
_cell_length_b 24.779100
_cell_length_c 7.928582
_cell_angle_alpha 124.895482
_cell_angle_beta 88.917749
_cell_angle_gamma 129.639095
_cell_volume 720.170104
_symmetry_space_group_name_H-M "P -1"
_symmetry_group_IT_number 2
_symmetry_cell_setting 'triclinic'
loop_
_space_group_symop_operation_xyz
x,y,z
-x,-y,-z
loop_
_atom_site_type_symbol
_atom_site_label
_atom_site_fract_x
_atom_site_fract_y
_atom_site_fract_z
Si Si1 0.595075 0.910168 0.983167
Si Si2 0.737828 0.699330 0.022851
Si Si3 0.448173 0.736298 0.292668
Si Si4 0.577243 0.758427 0.692937
Si Si5 0.161535 0.892021 0.154093
Si Si6 0.266755 0.057681 0.352317
Si Si7 0.707247 0.440272 0.506145
Si Si8 0.222020 0.422032 0.991154
O O1 0.459613 0.801073 0.810107
O O2 0.613062 0.928396 0.813815
O O3 0.404349 0.913686 0.089275
O O4 0.927250 0.991775 0.201495
O O5 0.578266 0.627264 0.732674
O O6 0.788807 0.654041 0.069923
O O7 0.506154 0.692420 0.086970
O O8 0.031459 0.817313 0.179365
O O9 0.650390 0.777996 0.528831
O O10 0.547547 0.831947 0.385509
O O11 0.107183 0.650222 0.206648
O O12 0.359657 0.641598 0.526935
O O13 0.873486 0.825364 0.917243
O O14 0.269877 0.995058 0.360083
O O15 0.740802 0.513773 0.748955
O O16 0.000000 0.500000 0.500000
O O17 0.500000 0.500000 0.000000
#
# Coordination Sequence:
#
# PCOD9009016 Si02
#       8
#     2   2   2   2   2   2   2   2
#     4   9  18  36  64  93 131 163 213 261 312 389
#     4  11  26  43  65  97 127 170 218 265 331 388
#     4  11  24  44  63  93 137 166 216 271 321 387
#     4   9  22  38  64  95 123 169 211 260 327 376
#     4  10  21  39  66  97 128 165 217 265 313 390
#     4   9  20  37  62  94 126 174 206 257 328 379
#     4  11  23  43  69  90 127 170 210 271 327 379
#     4  12  28  45  68  96 128 174 223 269 324 389
#
# _framework density 22.216972999999999
#
# number of rings (size 3 to 8) (size 9 to 14) (size 15 to 20)
#    0.000    1.750    1.250    2.250    3.500    9.500 
#    0.000    1.250    0.000    0.000    0.000    0.000 
#    0.000    0.000    0.000    0.000    0.000    0.000 
#
# Total GULP energy -89496.538756 kJ/mol
# GULP energy per Si atom -5593.533672 kJ/mol
# Density = 2.216641 g / cm^3
# Si number density = 22.216973 Si / 1000 Ang^3
#
#
#
# Elastic Constant Matrix: (Units=GPa)
#
#
# Indices 1 2 3 4 5 6 
#
# 1 84.0578 65.6518 24.6770 12.2443 -25.2744 1.3343
# 2 65.6518 131.6938 13.7867 22.6413 -17.0785 -14.6060
# 3 24.6770 13.7867 69.0028 11.6504 -16.5729 -4.5214
# 4 12.2443 22.6413 11.6504 28.0042 -3.6655 -3.7040
# 5 -25.2744 -17.0785 -16.5729 -3.6655 24.9329 -0.6907
# 6 1.3343 -14.6060 -4.5214 -3.7040 -0.6907 31.0708
#
#
#
# Elastic Compliance Matrix: (Units=1/GPa)
#
#
# Indices 1 2 3 4 5 6 
#
# 1 0.027549 -0.011990 -0.003929 0.000589 0.016997 -0.006943
# 2 -0.011990 0.015251 0.002780 -0.007391 -0.000747 0.007191
# 3 -0.003929 0.002780 0.019041 -0.006698 0.009695 0.003664
# 4 0.000589 -0.007391 -0.006698 0.043990 -0.002431 0.000716
# 5 0.016997 -0.000747 0.009695 -0.002431 0.062953 0.001440
# 6 -0.006943 0.007191 0.003664 0.000716 0.001440 0.036514
#
#
# Mechanical properties :
#
#
# Convention : Reuss Voigt Hill
#
# Bulk Modulus (GPa) = 28.11741 54.77614 41.44677
# Shear Modulus (GPa) = 20.53992 28.84419 24.69205
#
# Velocity S-wave (km/s) = 3.04388 3.60710 3.33739
# Velocity P-wave (km/s) = 5.00369 6.48512 5.79196
#
# Compressibility (1/GPa) = 0.03556516
#
# Stress axis : x y z
#
# Youngs Moduli (GPa) = 36.29878 65.57051 52.51754
#
# Poissons Ratio (x) = 0.78616 0.20634
# Poissons Ratio (y) = 0.43521 -0.14602
# Poissons Ratio (z) = 0.14261 -0.18232
#
# Static dielectric constant tensor:
#      x y z
#    x 1.784030 -0.030670 0.018540 
#    y -0.030670 1.847470 0.001630 
#    z 0.018540 0.001630 1.864940 
# 
# From -- ./inp_files/142682.got.cif
#   From: 2010.05.17/outbox.cif.g08.bks.cpg/sg2_72_cif.got.tgz:142682.got - 2010.06.03 11:33:40.
