data_PCOD9009770
_publ_section_title
;
Structure prediction by ZEFSAII (Michael W. Deem and Ramdas Pophale) SiO2 
 PCOD9009770
Probable space group: P -1
;
_chemical_formula_sum "Si O2"
_cell_formula_units_Z 16
_cell_length_a 5.300382
_cell_length_b 12.322713
_cell_length_c 11.445759
_cell_angle_alpha 99.861229
_cell_angle_beta 93.153155
_cell_angle_gamma 66.114960
_cell_volume 673.373115
_symmetry_space_group_name_H-M "P -1"
_symmetry_group_IT_number 2
_symmetry_cell_setting 'triclinic'
loop_
_space_group_symop_operation_xyz
x,y,z
-x,-y,-z
loop_
_atom_site_type_symbol
_atom_site_label
_atom_site_fract_x
_atom_site_fract_y
_atom_site_fract_z
Si Si1 0.912569 0.397822 0.933835
Si Si2 0.304604 0.921459 0.606513
Si Si3 0.154244 0.139243 0.477256
Si Si4 0.579513 0.156911 0.987716
Si Si5 0.151379 0.343892 0.684736
Si Si6 0.411142 0.616040 0.873144
Si Si7 0.141693 0.056914 0.865465
Si Si8 0.480335 0.516504 0.364268
O O1 0.117454 0.331156 0.821050
O O2 0.610362 0.477541 0.884746
O O3 0.851436 0.343315 0.040965
O O4 0.000000 0.500000 0.000000
O O5 0.633331 0.859042 0.615751
O O6 0.152055 0.832408 0.569638
O O7 0.250319 0.003224 0.503479
O O8 0.180919 0.012039 0.726045
O O9 0.181709 0.224139 0.595116
O O10 0.344739 0.118765 0.923606
O O11 0.818243 0.136905 0.893752
O O12 0.466666 0.288053 0.067832
O O13 0.749797 0.063971 0.075931
O O14 0.846529 0.439037 0.659732
O O15 0.381389 0.391776 0.658672
O O16 0.367750 0.603155 0.733064
O O17 0.500000 0.500000 0.500000
#
# Coordination Sequence:
#
# PCOD9009770 Si02
#       8
#     2   2   2   2   2   2   2   2
#     4  10  21  40  61  91 128 156 206 260 296 371
#     4  10  21  40  59  85 124 154 198 248 297 354
#     4  10  22  37  59  90 116 157 200 244 297 358
#     4  10  23  38  62  90 120 157 205 246 300 361
#     4  11  23  40  63  91 122 160 208 248 305 362
#     4  10  23  39  61  94 123 165 203 251 314 356
#     4  10  22  42  59  90 122 156 203 251 294 365
#     4  11  24  43  62  89 127 159 204 252 296 369
#
# _framework density 23.760973
#
# number of rings (size 3 to 8) (size 9 to 14) (size 15 to 20)
#    0.000    1.750    1.250    1.875    3.500    2.000 
#    0.000    0.000    0.000    0.000    0.000    0.000 
#    0.000    0.000    0.000    0.000    0.000    0.000 
#
# Total GULP energy -89313.043742 kJ/mol
# GULP energy per Si atom -5582.065234 kJ/mol
# Density = 2.370689 g / cm^3
# Si number density = 23.760973 Si / 1000 Ang^3
#
#
#
# Elastic Constant Matrix: (Units=GPa)
#
#
# Indices 1 2 3 4 5 6 
#
# 1 138.9383 15.8617 30.8956 12.0104 -11.9993 25.0619
# 2 15.8617 43.7748 29.0848 17.6273 -7.7885 3.9912
# 3 30.8956 29.0848 141.6876 17.6987 -18.6435 18.4800
# 4 12.0104 17.6273 17.6987 40.6047 3.1451 11.1237
# 5 -11.9993 -7.7885 -18.6435 3.1451 36.9278 7.3084
# 6 25.0619 3.9912 18.4800 11.1237 7.3084 29.7324
#
#
#
# Elastic Compliance Matrix: (Units=1/GPa)
#
#
# Indices 1 2 3 4 5 6 
#
# 1 0.009357 -0.001881 0.000061 0.000089 0.004406 -0.008789
# 2 -0.001881 0.032073 -0.004527 -0.012771 0.004195 0.003841
# 3 0.000061 -0.004527 0.009609 -0.000903 0.005253 -0.006369
# 4 0.000089 -0.012771 -0.000903 0.033401 -0.004128 -0.009281
# 5 0.004406 0.004195 0.005253 -0.004128 0.035305 -0.014676
# 6 -0.008789 0.003841 -0.006369 -0.009281 -0.014676 0.051564
#
#
# Mechanical properties :
#
#
# Convention : Reuss Voigt Hill
#
# Bulk Modulus (GPa) = 26.08077 52.89833 39.48955
# Shear Modulus (GPa) = 25.40846 38.02356 31.71601
#
# Velocity S-wave (km/s) = 3.27362 4.00466 3.65745
# Velocity P-wave (km/s) = 5.02881 6.61015 5.87294
#
# Compressibility (1/GPa) = 0.03834242
#
# Stress axis : x y z
#
# Youngs Moduli (GPa) = 106.87370 31.17924 104.07349
#
# Poissons Ratio (x) = 0.05866 -0.00633
# Poissons Ratio (y) = 0.20108 0.47116
# Poissons Ratio (z) = -0.00650 0.14115
#
# Static dielectric constant tensor:
#      x y z
#    x 2.024190 -0.014990 0.020920 
#    y -0.014990 1.989060 -0.000300 
#    z 0.020920 -0.000300 1.947370 
# 
# From -- ./inp_files/118319.got.cif
#   From: 2010.05.17/outbox.cif.g08.bks.cpg/sg2_60_cif.got.tgz:118319.got - 2010.06.03 11:33:40.
