data_PCOD9009889
_publ_section_title
;
Structure prediction by ZEFSAII (Michael W. Deem and Ramdas Pophale) SiO2 
 PCOD9009889
Probable space group: P -1
;
_chemical_formula_sum "Si O2"
_cell_formula_units_Z 16
_cell_length_a 16.285672
_cell_length_b 10.158850
_cell_length_c 7.895137
_cell_angle_alpha 45.762653
_cell_angle_beta 116.778265
_cell_angle_gamma 136.187689
_cell_volume 644.184591
_symmetry_space_group_name_H-M "P -1"
_symmetry_group_IT_number 2
_symmetry_cell_setting 'triclinic'
loop_
_space_group_symop_operation_xyz
x,y,z
-x,-y,-z
loop_
_atom_site_type_symbol
_atom_site_label
_atom_site_fract_x
_atom_site_fract_y
_atom_site_fract_z
Si Si1 0.921834 0.458411 0.306293
Si Si2 0.674588 0.025140 0.353887
Si Si3 0.624674 0.356827 0.862415
Si Si4 0.454013 0.582461 0.742468
Si Si5 0.641170 0.862707 0.111368
Si Si6 0.688575 0.296738 0.599295
Si Si7 0.950233 0.686839 0.587948
Si Si8 0.119732 0.227210 0.192644
O O1 0.788992 0.206782 0.412038
O O2 0.000000 0.500000 0.500000
O O3 0.989724 0.435861 0.239859
O O4 0.912193 0.660773 0.076509
O O5 0.570256 0.780750 0.564185
O O6 0.710655 0.983854 0.242209
O O7 0.625734 0.163848 0.132825
O O8 0.498071 0.288939 0.832093
O O9 0.644923 0.326178 0.713382
O O10 0.737382 0.614450 0.804564
O O11 0.352285 0.332892 0.777216
O O12 0.389564 0.694938 0.619850
O O13 0.500000 0.500000 0.000000
O O14 0.670326 0.056316 0.827046
O O15 0.828007 0.516004 0.522096
O O16 0.915379 0.722042 0.706725
O O17 0.044785 0.947248 0.360081
#
# Coordination Sequence:
#
# PCOD9009889 Si02
#       8
#     2   2   2   2   2   2   2   2
#     4  11  25  42  63  94 131 168 211 260 316 378
#     4  10  21  42  65  91 123 162 218 260 298 373
#     4   9  17  38  68  92 119 160 214 264 298 358
#     4  12  26  39  58  99 131 161 201 258 326 379
#     4  11  21  39  70  90 120 172 208 262 306 360
#     4  10  21  40  60  91 128 159 211 256 306 372
#     4  10  22  40  66  90 126 170 209 263 311 366
#     4   9  21  39  64  97 122 164 218 260 307 373
#
# _framework density 24.837599000000001
#
# number of rings (size 3 to 8) (size 9 to 14) (size 15 to 20)
#    0.000    1.750    2.500    2.250    1.750    6.000 
#    4.500    0.000    0.000    0.000    0.000    0.000 
#    0.000    0.000    0.000    0.000    0.000    0.000 
#
# Total GULP energy -89617.799002 kJ/mol
# GULP energy per Si atom -5601.112438 kJ/mol
# Density = 2.478107 g / cm^3
# Si number density = 24.837599 Si / 1000 Ang^3
#
#
#
# Elastic Constant Matrix: (Units=GPa)
#
#
# Indices 1 2 3 4 5 6 
#
# 1 38.9144 4.0365 16.3160 -1.6148 3.3474 5.6918
# 2 4.0365 120.4675 62.2411 -7.0122 0.6606 17.6545
# 3 16.3160 62.2411 159.4310 -5.5332 9.3654 6.9927
# 4 -1.6148 -7.0122 -5.5332 35.9034 1.2795 1.6006
# 5 3.3474 0.6606 9.3654 1.2795 25.8911 1.6069
# 6 5.6918 17.6545 6.9927 1.6006 1.6069 32.9961
#
#
#
# Elastic Compliance Matrix: (Units=1/GPa)
#
#
# Indices 1 2 3 4 5 6 
#
# 1 0.027776 0.001427 -0.003003 0.001365 -0.002306 -0.004872
# 2 0.001427 0.011435 -0.004382 0.001823 0.001366 -0.005591
# 3 -0.003003 -0.004382 0.008405 0.000345 -0.002631 0.001193
# 4 0.001365 0.001823 0.000345 0.028495 -0.001595 -0.002588
# 5 -0.002306 0.001366 -0.002631 -0.001595 0.040019 -0.001647
# 6 -0.004872 -0.005591 0.001193 -0.002588 -0.001647 0.034091
#
#
# Mechanical properties :
#
#
# Convention : Reuss Voigt Hill
#
# Bulk Modulus (GPa) = 28.01143 53.77776 40.89460
# Shear Modulus (GPa) = 28.72932 34.70607 31.71769
#
# Velocity S-wave (km/s) = 3.40470 3.74213 3.57739
# Velocity P-wave (km/s) = 5.17284 6.35375 5.79346
#
# Compressibility (1/GPa) = 0.03569972
#
# Stress axis : x y z
#
# Youngs Moduli (GPa) = 36.00198 87.44969 118.98282
#
# Poissons Ratio (x) = -0.12479 0.35732
# Poissons Ratio (y) = -0.05138 0.52138
# Poissons Ratio (z) = 0.10812 0.38321
#
# Static dielectric constant tensor:
#      x y z
#    x 1.995860 -0.063270 -0.034290 
#    y -0.063270 1.992800 0.050330 
#    z -0.034290 0.050330 1.948680 
# 
# From -- ./inp_files/345895.got.cif
#   From: 2010.05.17/outbox.cif.g08.bks.cpg/sg2_173_cif.got.tgz:345895.got - 2010.06.03 11:33:40.
