data_PCOD9009982
_publ_section_title
;
Structure prediction by ZEFSAII (Michael W. Deem and Ramdas Pophale) SiO2 
 PCOD9009982
Probable space group: P -1
;
_chemical_formula_sum "Si O2"
_cell_formula_units_Z 12
_cell_length_a 7.379706
_cell_length_b 9.519468
_cell_length_c 10.746866
_cell_angle_alpha 115.176146
_cell_angle_beta 115.992098
_cell_angle_gamma 55.395164
_cell_volume 542.428824
_symmetry_space_group_name_H-M "P -1"
_symmetry_group_IT_number 2
_symmetry_cell_setting 'triclinic'
loop_
_space_group_symop_operation_xyz
x,y,z
-x,-y,-z
loop_
_atom_site_type_symbol
_atom_site_label
_atom_site_fract_x
_atom_site_fract_y
_atom_site_fract_z
Si Si1 0.245667 0.832826 0.037644
Si Si2 0.970440 0.693578 0.048415
Si Si3 0.884649 0.134237 0.402850
Si Si4 0.646280 0.074529 0.643489
Si Si5 0.476507 0.247348 0.160497
Si Si6 0.753452 0.353377 0.663216
O O1 0.168094 0.698384 0.026391
O O2 0.383885 0.877335 0.202084
O O3 0.392206 0.763337 0.931930
O O4 0.000000 0.000000 0.000000
O O5 0.016636 0.740491 0.218206
O O6 0.724282 0.801135 0.951034
O O7 0.000000 0.500000 0.000000
O O8 0.667758 0.132872 0.274399
O O9 0.804086 0.319017 0.519620
O O10 0.000000 0.000000 0.500000
O O11 0.089302 0.076211 0.345531
O O12 0.617645 0.249154 0.628050
O O13 0.500000 0.000000 0.500000
O O14 0.365519 0.444665 0.257097
#
# Coordination Sequence:
#
# PCOD9009982 Si02
#       6
#     2   2   2   2   2   2
#     4  11  23  41  64 100 131 159 227 270 312 396
#     4   9  22  41  65  97 127 168 211 262 333 380
#     4  10  21  40  61  88 127 166 214 258 317 392
#     4  10  22  40  60  92 128 170 205 266 326 372
#     4  11  22  42  68  93 130 172 212 275 327 371
#     4   9  21  41  63  92 125 166 219 256 318 396
#
# _framework density 22.122719
#
# number of rings (size 3 to 8) (size 9 to 14) (size 15 to 20)
#    0.000    2.000    1.667    0.500    2.333    9.333 
#    3.000    0.833    0.000    0.000    0.000    0.000 
#    0.000    0.000    0.000    0.000    0.000    0.000 
#
# Total GULP energy -66974.335513 kJ/mol
# GULP energy per Si atom -5581.194626 kJ/mol
# Density = 2.207237 g / cm^3
# Si number density = 22.122719 Si / 1000 Ang^3
#
#
#
# Elastic Constant Matrix: (Units=GPa)
#
#
# Indices 1 2 3 4 5 6 
#
# 1 65.4232 10.1306 46.9191 3.0586 10.8443 -9.3263
# 2 10.1306 66.1828 21.4115 5.1107 7.5870 -4.1321
# 3 46.9191 21.4115 158.0729 -8.2359 24.0499 -5.4026
# 4 3.0586 5.1107 -8.2359 33.9702 -9.6753 4.7322
# 5 10.8443 7.5870 24.0499 -9.6753 61.2655 6.3453
# 6 -9.3263 -4.1321 -5.4026 4.7322 6.3453 33.8874
#
#
#
# Elastic Compliance Matrix: (Units=1/GPa)
#
#
# Indices 1 2 3 4 5 6 
#
# 1 0.021072 -0.000256 -0.005842 -0.004918 -0.002808 0.006049
# 2 -0.000256 0.016482 -0.001950 -0.003888 -0.002110 0.002566
# 3 -0.005842 -0.001950 0.008696 0.002515 -0.001689 -0.000494
# 4 -0.004918 -0.003888 0.002515 0.033952 0.006491 -0.007383
# 5 -0.002808 -0.002110 -0.001689 0.006491 0.019373 -0.005833
# 6 0.006049 0.002566 -0.000494 -0.007383 -0.005833 0.033532
#
#
# Mechanical properties :
#
#
# Convention : Reuss Voigt Hill
#
# Bulk Modulus (GPa) = 33.16456 49.62237 41.39347
# Shear Modulus (GPa) = 31.39603 39.90580 35.65092
#
# Velocity S-wave (km/s) = 3.77128 4.25177 4.01871
# Velocity P-wave (km/s) = 5.82985 6.82514 6.34704
#
# Compressibility (1/GPa) = 0.03015267
#
# Stress axis : x y z
#
# Youngs Moduli (GPa) = 47.45575 60.67152 114.99991
#
# Poissons Ratio (x) = 0.01554 0.67185
# Poissons Ratio (y) = 0.01216 0.22429
# Poissons Ratio (z) = 0.27725 0.11833
#
# Static dielectric constant tensor:
#      x y z
#    x 1.836440 -0.030920 -0.003620 
#    y -0.030920 1.990520 0.038320 
#    z -0.003620 0.038320 1.886700 
# 
# From -- ./inp_files/380104.got.cif
#   From: 2010.05.17/outbox.cif.g08.bks.cpg/sg2_191_cif.got.tgz:380104.got - 2010.06.03 11:33:40.
