data_PCOD9009146
_publ_section_title
;
Structure prediction by ZEFSAII (Michael W. Deem and Ramdas Pophale) SiO2 
 PCOD9009146
Probable space group: P -1
;
_chemical_formula_sum "Si O2"
_cell_formula_units_Z 16
_cell_length_a 9.273268
_cell_length_b 11.972463
_cell_length_c 15.127169
_cell_angle_alpha 53.932691
_cell_angle_beta 66.085290
_cell_angle_gamma 111.001392
_cell_volume 731.200421
_symmetry_space_group_name_H-M "P -1"
_symmetry_group_IT_number 2
_symmetry_cell_setting 'triclinic'
loop_
_space_group_symop_operation_xyz
x,y,z
-x,-y,-z
loop_
_atom_site_type_symbol
_atom_site_label
_atom_site_fract_x
_atom_site_fract_y
_atom_site_fract_z
Si Si1 0.355231 0.769333 0.692881
Si Si2 0.412971 0.372304 0.694444
Si Si3 0.528627 0.693093 0.986124
Si Si4 0.086900 0.101910 0.070867
Si Si5 0.683367 0.768967 0.710379
Si Si6 0.873445 0.349089 0.876593
Si Si7 0.712545 0.441732 0.449059
Si Si8 0.718385 0.087532 0.196545
O O1 0.535545 0.765849 0.678655
O O2 0.258030 0.770203 0.808245
O O3 0.120820 0.555802 0.785192
O O4 0.500000 0.000000 0.500000
O O5 0.659197 0.460936 0.551727
O O6 0.428545 0.543277 0.585356
O O7 0.327348 0.293728 0.852467
O O8 0.157235 0.137504 0.810570
O O9 0.798724 0.906685 0.874723
O O10 0.604873 0.764398 0.831070
O O11 0.422421 0.464413 0.145881
O O12 0.301541 0.639374 0.095056
O O13 0.968184 0.160591 0.110750
O O14 0.000000 0.000000 0.500000
O O15 0.990734 0.369704 0.748218
O O16 0.710127 0.123411 0.079400
O O17 0.552219 0.187857 0.591507
#
# Coordination Sequence:
#
# PCOD9009146 Si02
#       8
#     2   2   2   2   2   2   2   2
#     4  12  24  40  67  97 131 173 220 258 310 389
#     4   9  20  41  68  96 118 160 224 277 311 384
#     4  11  26  42  63  92 138 174 207 264 326 382
#     4  10  21  41  69  93 124 168 215 269 326 371
#     4  11  26  43  61  95 138 175 212 258 317 385
#     4  12  23  40  63  94 130 172 213 259 314 385
#     4  10  21  39  67  92 122 156 216 274 318 367
#     4  11  22  37  66  92 123 169 214 261 308 383
#
# _framework density 21.881827000000001
#
# number of rings (size 3 to 8) (size 9 to 14) (size 15 to 20)
#    0.000    1.250    3.750    1.875    5.250    0.000 
#    2.250    1.250    0.000    0.000    0.000    0.000 
#    0.000    0.000    0.000    0.000    0.000    0.000 
#
# Total GULP energy -89384.916101 kJ/mol
# GULP energy per Si atom -5586.557256 kJ/mol
# Density = 2.183202 g / cm^3
# Si number density = 21.881827 Si / 1000 Ang^3
#
#
#
# Elastic Constant Matrix: (Units=GPa)
#
#
# Indices 1 2 3 4 5 6 
#
# 1 135.5423 19.7993 13.4102 12.3653 -7.4015 -9.8381
# 2 19.7993 31.7255 18.7382 16.0415 -17.2465 -13.4113
# 3 13.4102 18.7382 96.4288 23.4130 13.9271 -15.9290
# 4 12.3653 16.0415 23.4130 38.9231 -14.0448 -4.7476
# 5 -7.4015 -17.2465 13.9271 -14.0448 28.9346 8.1853
# 6 -9.8381 -13.4113 -15.9290 -4.7476 8.1853 26.0372
#
#
#
# Elastic Compliance Matrix: (Units=1/GPa)
#
#
# Indices 1 2 3 4 5 6 
#
# 1 0.008254 -0.006304 0.001322 -0.001956 -0.003648 0.001470
# 2 -0.006304 0.082087 -0.023041 0.003966 0.057984 0.008298
# 3 0.001322 -0.023041 0.028274 -0.021064 -0.041512 0.015138
# 4 -0.001956 0.003966 -0.021064 0.050163 0.040656 -0.015217
# 5 -0.003648 0.057984 -0.041512 0.040656 0.115175 -0.025702
# 6 0.001470 0.008298 0.015138 -0.015217 -0.025702 0.057803
#
#
# Mechanical properties :
#
#
# Convention : Reuss Voigt Hill
#
# Bulk Modulus (GPa) = 15.98273 40.84357 28.41315
# Shear Modulus (GPa) = 11.94290 32.89558 22.41924
#
# Velocity S-wave (km/s) = 2.33875 3.88148 3.20435
# Velocity P-wave (km/s) = 3.82269 6.22848 5.16754
#
# Compressibility (1/GPa) = 0.06256754
#
# Stress axis : x y z
#
# Youngs Moduli (GPa) = 121.15540 12.18223 35.36773
#
# Poissons Ratio (x) = 0.07680 -0.04675
# Poissons Ratio (y) = 0.76382 0.81492
# Poissons Ratio (z) = -0.16016 0.28069
#
# Static dielectric constant tensor:
#      x y z
#    x 1.779050 -0.015190 0.015720 
#    y -0.015190 1.866620 0.020120 
#    z 0.015720 0.020120 1.866400 
# 
# From -- ./inp_files/500025.got.cif
#   From: 2010.05.17/outbox.cif.g08.bks.cpg/sg2_251_cif.got.tgz:500025.got - 2010.06.03 11:33:40.
