data_PCOD9009030
_publ_section_title
;
Structure prediction by ZEFSAII (Michael W. Deem and Ramdas Pophale) SiO2 
 PCOD9009030
Probable space group: P -1
;
_chemical_formula_sum "Si O2"
_cell_formula_units_Z 14
_cell_length_a 8.912072
_cell_length_b 5.718656
_cell_length_c 21.114737
_cell_angle_alpha 62.990734
_cell_angle_beta 140.386261
_cell_angle_gamma 126.829633
_cell_volume 549.139314
_symmetry_space_group_name_H-M "P -1"
_symmetry_group_IT_number 2
_symmetry_cell_setting 'triclinic'
loop_
_space_group_symop_operation_xyz
x,y,z
-x,-y,-z
loop_
_atom_site_type_symbol
_atom_site_label
_atom_site_fract_x
_atom_site_fract_y
_atom_site_fract_z
Si Si1 0.277471 0.298060 0.276747
Si Si2 0.267080 0.039868 0.027525
Si Si3 0.210038 0.601503 0.889898
Si Si4 0.814229 0.394010 0.267063
Si Si5 0.706329 0.799979 0.842814
Si Si6 0.832015 0.845326 0.401920
Si Si7 0.804581 0.135004 0.592141
O O1 0.296088 0.122158 0.241721
O O2 0.561379 0.551105 0.356812
O O3 0.059843 0.405089 0.174957
O O4 0.152594 0.096786 0.321494
O O5 0.525149 0.090759 0.065477
O O6 0.298542 0.028865 0.114742
O O7 0.252682 0.348153 0.970729
O O8 0.985955 0.796795 0.944466
O O9 0.174692 0.536685 0.811250
O O10 0.583352 0.467317 0.211851
O O11 0.091777 0.581245 0.366026
O O12 0.753289 0.072830 0.311466
O O13 0.031572 0.791606 0.427383
O O14 0.000000 0.000000 0.500000
O O15 0.500000 0.000000 0.500000
#
# Coordination Sequence:
#
# PCOD9009030 Si02
#       7
#     2   2   2   2   2   2   2
#     4  12  25  44  71 104 138 180 235 280 341 410
#     4   9  20  40  63  98 138 186 223 278 350 389
#     4  10  21  39  66  97 137 185 221 281 337 404
#     4  11  23  46  70  96 148 180 228 280 345 409
#     4  10  21  39  66  97 137 185 221 281 337 404
#     4  12  28  46  70 104 137 180 231 285 345 411
#     4  12  28  46  70 104 137 180 231 285 345 411
#
# _framework density 25.494440999999998
#
# number of rings (size 3 to 8) (size 9 to 14) (size 15 to 20)
#    0.000    1.143    2.857    2.571    4.000    3.429 
#    0.000    0.000    0.000    0.000    0.000    0.000 
#    0.000    0.000    0.000    0.000    0.000    0.000 
#
# Total GULP energy -78161.090158 kJ/mol
# GULP energy per Si atom -5582.935011 kJ/mol
# Density = 2.543641 g / cm^3
# Si number density = 25.494441 Si / 1000 Ang^3
#
#
#
# Elastic Constant Matrix: (Units=GPa)
#
#
# Indices 1 2 3 4 5 6 
#
# 1 131.4036 14.6931 37.2591 22.7612 -8.5705 21.0122
# 2 14.6931 44.3541 4.7489 -10.2861 0.8664 19.7334
# 3 37.2591 4.7489 126.6426 19.4533 -3.1715 -2.8805
# 4 22.7612 -10.2861 19.4533 45.1424 5.8605 1.8229
# 5 -8.5705 0.8664 -3.1715 5.8605 58.7648 11.6003
# 6 21.0122 19.7334 -2.8805 1.8229 11.6003 23.9656
#
#
#
# Elastic Compliance Matrix: (Units=1/GPa)
#
#
# Indices 1 2 3 4 5 6 
#
# 1 0.011485 0.001467 -0.002979 -0.004222 0.004585 -0.013534
# 2 0.001467 0.044022 -0.004756 0.012210 0.006408 -0.042137
# 3 -0.002979 -0.004756 0.009727 -0.003972 -0.001130 0.008546
# 4 -0.004222 0.012210 -0.003972 0.029403 -0.002380 -0.007914
# 5 0.004585 0.006408 -0.001130 -0.002380 0.021664 -0.019738
# 6 -0.013534 -0.042137 0.008546 -0.007914 -0.019738 0.099471
#
#
# Mechanical properties :
#
#
# Convention : Reuss Voigt Hill
#
# Bulk Modulus (GPa) = 18.97542 46.20028 32.58785
# Shear Modulus (GPa) = 20.33556 41.95450 31.14503
#
# Velocity S-wave (km/s) = 2.82733 4.06104 3.49899
# Velocity P-wave (km/s) = 4.25647 6.33644 5.39759
#
# Compressibility (1/GPa) = 0.05269975
#
# Stress axis : x y z
#
# Youngs Moduli (GPa) = 87.06851 22.71573 102.80583
#
# Poissons Ratio (x) = -0.03332 0.30621
# Poissons Ratio (y) = -0.12772 0.48893
# Poissons Ratio (z) = 0.25934 0.10803
#
# Static dielectric constant tensor:
#      x y z
#    x 2.075460 -0.060640 0.090500 
#    y -0.060640 2.128360 -0.016400 
#    z 0.090500 -0.016400 2.084580 
# 
# From -- ./inp_files/52660.got.cif
#   From: 2010.05.17/outbox.cif.g08.bks.cpg/sg2_27_cif.got.tgz:52660.got - 2010.06.03 11:33:40.
