data_PCOD9009708
_publ_section_title
;
Structure prediction by ZEFSAII (Michael W. Deem and Ramdas Pophale) SiO2 
 PCOD9009708
Probable space group: P -1
;
_chemical_formula_sum "Si O2"
_cell_formula_units_Z 16
_cell_length_a 7.171241
_cell_length_b 7.235814
_cell_length_c 23.131636
_cell_angle_alpha 130.416178
_cell_angle_beta 130.721328
_cell_angle_gamma 60.447089
_cell_volume 687.445654
_symmetry_space_group_name_H-M "P -1"
_symmetry_group_IT_number 2
_symmetry_cell_setting 'triclinic'
loop_
_space_group_symop_operation_xyz
x,y,z
-x,-y,-z
loop_
_atom_site_type_symbol
_atom_site_label
_atom_site_fract_x
_atom_site_fract_y
_atom_site_fract_z
Si Si1 0.454142 0.952759 0.680918
Si Si2 0.405174 0.369835 0.049043
Si Si3 0.098955 0.298173 0.613971
Si Si4 0.425933 0.612550 0.428453
Si Si5 0.704791 0.265015 0.197683
Si Si6 0.585619 0.082687 0.863892
Si Si7 0.445275 0.927271 0.395463
Si Si8 0.104023 0.951299 0.916158
O O1 0.458957 0.663611 0.614180
O O2 0.617856 0.043422 0.679024
O O3 0.188151 0.104334 0.643444
O O4 0.532333 0.021436 0.773899
O O5 0.615854 0.031058 0.162305
O O6 0.401294 0.629575 0.071706
O O7 0.641061 0.188527 0.035440
O O8 0.167954 0.223813 0.969908
O O9 0.217437 0.543960 0.702481
O O10 0.807614 0.368685 0.571524
O O11 0.255402 0.169609 0.566394
O O12 0.591735 0.809530 0.528159
O O13 0.336101 0.727171 0.371399
O O14 0.484094 0.387969 0.136259
O O15 0.917987 0.184304 0.177401
O O16 0.861347 0.949183 0.903819
#
# Coordination Sequence:
#
# PCOD9009708 Si02
#       8
#     2   2   2   2   2   2   2   2
#     4  10  22  37  57  86 115 144 193 229 272 345
#     4   9  20  43  55  86 120 136 197 241 260 348
#     4  10  21  40  56  84 118 145 186 238 275 328
#     4  11  20  41  62  78 118 151 181 238 285 323
#     4  10  21  40  56  85 115 146 194 227 276 343
#     4  12  21  38  62  80 116 157 179 232 292 324
#     4   9  22  40  57  89 111 144 197 228 274 349
#     4   9  21  41  57  85 117 145 188 239 277 327
#
# _framework density 23.274569
#
# number of rings (size 3 to 8) (size 9 to 14) (size 15 to 20)
#    1.500    0.500    1.250    2.625    0.000    1.000 
#    9.000    1.250    0.000    0.000    0.000    0.000 
#    0.000    0.000    0.000    0.000    0.000    0.000 
#
# Total GULP energy -89240.553424 kJ/mol
# GULP energy per Si atom -5577.534589 kJ/mol
# Density = 2.322160 g / cm^3
# Si number density = 23.274569 Si / 1000 Ang^3
#
#
#
# Elastic Constant Matrix: (Units=GPa)
#
#
# Indices 1 2 3 4 5 6 
#
# 1 54.2508 15.0247 -9.8408 0.8586 -4.7663 7.2347
# 2 15.0247 68.9288 8.6064 25.2029 5.2336 10.3109
# 3 -9.8408 8.6064 59.1150 8.9285 -6.9510 8.8939
# 4 0.8586 25.2029 8.9285 35.3390 12.1187 -0.7853
# 5 -4.7663 5.2336 -6.9510 12.1187 24.9478 -3.8261
# 6 7.2347 10.3109 8.8939 -0.7853 -3.8261 32.5620
#
#
#
# Elastic Compliance Matrix: (Units=1/GPa)
#
#
# Indices 1 2 3 4 5 6 
#
# 1 0.022097 -0.005184 0.005950 -0.000728 0.006688 -0.004125
# 2 -0.005184 0.022484 -0.000644 -0.016251 0.001079 -0.006057
# 3 0.005950 -0.000644 0.021497 -0.008910 0.010677 -0.005950
# 4 -0.000728 -0.016251 -0.008910 0.050029 -0.022549 0.006299
# 5 0.006688 0.001079 0.010677 -0.022549 0.055248 0.001204
# 6 -0.004125 -0.006057 -0.005950 0.006299 0.001204 0.035464
#
#
# Mechanical properties :
#
#
# Convention : Reuss Voigt Hill
#
# Bulk Modulus (GPa) = 15.07761 23.31945 19.19853
# Shear Modulus (GPa) = 21.86446 29.80338 25.83392
#
# Velocity S-wave (km/s) = 3.06831 3.58231 3.33523
# Velocity P-wave (km/s) = 4.36405 5.21072 4.80607
#
# Compressibility (1/GPa) = 0.06632350
#
# Stress axis : x y z
#
# Youngs Moduli (GPa) = 45.25463 44.47552 46.51824
#
# Poissons Ratio (x) = 0.23056 -0.27680
# Poissons Ratio (y) = 0.23460 0.02995
# Poissons Ratio (z) = -0.26928 0.02863
#
# Static dielectric constant tensor:
#      x y z
#    x 1.881170 -0.014820 -0.011090 
#    y -0.014820 1.901650 -0.034860 
#    z -0.011090 -0.034860 1.880570 
# 
# From -- ./inp_files/622298.got.cif
#   From: 2010.05.17/outbox.cif.g08.bks.cpg/sg2_312_cif.got.tgz:622298.got - 2010.06.03 11:33:40.
