data_PCOD9009823
_publ_section_title
;
Structure prediction by ZEFSAII (Michael W. Deem and Ramdas Pophale) SiO2 
 PCOD9009823
Probable space group: P -1
;
_chemical_formula_sum "Si O2"
_cell_formula_units_Z 16
_cell_length_a 15.017462
_cell_length_b 8.617568
_cell_length_c 11.161753
_cell_angle_alpha 38.830917
_cell_angle_beta 116.976175
_cell_angle_gamma 106.892346
_cell_volume 802.068049
_symmetry_space_group_name_H-M "P -1"
_symmetry_group_IT_number 2
_symmetry_cell_setting 'triclinic'
loop_
_space_group_symop_operation_xyz
x,y,z
-x,-y,-z
loop_
_atom_site_type_symbol
_atom_site_label
_atom_site_fract_x
_atom_site_fract_y
_atom_site_fract_z
Si Si1 0.594447 0.808330 0.416157
Si Si2 0.116792 0.186140 0.783571
Si Si3 0.915500 0.357166 0.970481
Si Si4 0.077617 0.603391 0.327465
Si Si5 0.276806 0.384812 0.174309
Si Si6 0.464919 0.623997 0.030250
Si Si7 0.403649 0.576939 0.551627
Si Si8 0.222667 0.003241 0.179450
O O1 0.673717 0.791981 0.582839
O O2 0.496342 0.699975 0.475059
O O3 0.631472 0.622565 0.442998
O O4 0.563161 0.083603 0.183611
O O5 0.132540 0.376188 0.573387
O O6 0.912418 0.444584 0.778099
O O7 0.070777 0.943858 0.848961
O O8 0.211827 0.091712 0.981374
O O9 0.809639 0.429204 0.928901
O O10 0.000000 0.500000 0.000000
O O11 0.963311 0.660477 0.268357
O O12 0.127085 0.855322 0.231330
O O13 0.366689 0.514358 0.090044
O O14 0.228122 0.228454 0.137028
O O15 0.553330 0.557299 0.220939
O O16 0.500000 0.500000 0.000000
O O17 0.317516 0.801864 0.381529
#
# Coordination Sequence:
#
# PCOD9009823 Si02
#       8
#     2   2   2   2   2   2   2   2
#     4  10  21  40  60  83 119 152 194 247 295 349
#     4  10  22  40  61  87 118 155 200 241 292 357
#     4  11  22  40  63  89 124 157 192 245 297 345
#     4  10  22  40  62  87 117 158 199 240 294 352
#     4  11  24  38  59  90 118 156 202 240 295 359
#     4  11  23  40  61  87 121 157 197 248 299 349
#     4  10  22  38  60  87 113 154 198 241 297 356
#     4  11  21  38  60  84 119 154 194 244 294 347
#
# _framework density 19.948433999999999
#
# number of rings (size 3 to 8) (size 9 to 14) (size 15 to 20)
#    0.000    1.500    0.000    6.375    0.000    7.500 
#    0.000    1.250    0.000    0.000    0.000    0.000 
#    0.000    0.000    0.000    0.000    0.000    0.000 
#
# Total GULP energy -89405.940233 kJ/mol
# GULP energy per Si atom -5587.871265 kJ/mol
# Density = 1.990303 g / cm^3
# Si number density = 19.948434 Si / 1000 Ang^3
#
#
#
# Elastic Constant Matrix: (Units=GPa)
#
#
# Indices 1 2 3 4 5 6 
#
# 1 62.8776 12.0444 10.7497 4.4540 5.1998 -21.5579
# 2 12.0444 117.9354 43.0686 4.0295 -10.6619 -6.4157
# 3 10.7497 43.0686 141.1771 4.5907 -17.3180 -4.1579
# 4 4.4540 4.0295 4.5907 22.0318 -2.5314 9.2805
# 5 5.1998 -10.6619 -17.3180 -2.5314 26.7779 0.4437
# 6 -21.5579 -6.4157 -4.1579 9.2805 0.4437 29.6785
#
#
#
# Elastic Compliance Matrix: (Units=1/GPa)
#
#
# Indices 1 2 3 4 5 6 
#
# 1 0.026310 -0.001070 -0.001494 -0.015770 -0.008385 0.023727
# 2 -0.001070 0.009854 -0.002554 -0.001372 0.002327 0.001389
# 3 -0.001494 -0.002554 0.008561 -0.000288 0.004789 -0.000419
# 4 -0.015770 -0.001372 -0.000288 0.063258 0.008835 -0.031704
# 5 -0.008385 0.002327 0.004789 0.008835 0.043970 -0.008337
# 6 0.023727 0.001389 -0.000419 -0.031704 -0.008337 0.061209
#
#
# Mechanical properties :
#
#
# Convention : Reuss Voigt Hill
#
# Bulk Modulus (GPa) = 28.99462 50.41283 39.70372
# Shear Modulus (GPa) = 21.28638 32.77279 27.02959
#
# Velocity S-wave (km/s) = 3.27015 4.05764 3.68499
# Velocity P-wave (km/s) = 5.36888 6.87597 6.16862
#
# Compressibility (1/GPa) = 0.03448916
#
# Stress axis : x y z
#
# Youngs Moduli (GPa) = 38.00907 101.48295 116.81413
#
# Poissons Ratio (x) = 0.10857 0.17451
# Poissons Ratio (y) = 0.04066 0.29830
# Poissons Ratio (z) = 0.05678 0.25915
#
# Static dielectric constant tensor:
#      x y z
#    x 1.713420 0.000490 0.013930 
#    y 0.000490 1.688010 0.013430 
#    z 0.013930 0.013430 1.692850 
# 
# From -- ./inp_files/460911.got.cif
#   From: 2010.05.17/outbox.cif.g08.bks.cpg/sg2_231_cif.got.tgz:460911.got - 2010.06.03 11:33:40.
