data_PCOD9009769
_publ_section_title
;
Structure prediction by ZEFSAII (Michael W. Deem and Ramdas Pophale) SiO2 
 PCOD9009769
Probable space group: P -1
;
_chemical_formula_sum "Si O2"
_cell_formula_units_Z 14
_cell_length_a 17.815913
_cell_length_b 17.601590
_cell_length_c 20.555233
_cell_angle_alpha 19.110656
_cell_angle_beta 159.993016
_cell_angle_gamma 156.766124
_cell_volume 693.749843
_symmetry_space_group_name_H-M "P -1"
_symmetry_group_IT_number 2
_symmetry_cell_setting 'triclinic'
loop_
_space_group_symop_operation_xyz
x,y,z
-x,-y,-z
loop_
_atom_site_type_symbol
_atom_site_label
_atom_site_fract_x
_atom_site_fract_y
_atom_site_fract_z
Si Si1 0.233466 0.505513 0.448362
Si Si2 0.472217 0.215114 0.655776
Si Si3 0.878262 0.493802 0.836779
Si Si4 0.298681 0.915165 0.353502
Si Si5 0.378259 0.424403 0.771985
Si Si6 0.196489 0.680575 0.825832
Si Si7 0.831475 0.995239 0.960551
O O1 0.418032 0.612738 0.455397
O O2 0.327180 0.405594 0.668787
O O3 0.015019 0.311597 0.398130
O O4 0.151929 0.736578 0.218368
O O5 0.679538 0.257419 0.842493
O O6 0.264844 0.307701 0.440068
O O7 0.364356 0.942528 0.765816
O O8 0.075421 0.555257 0.893762
O O9 0.000000 0.500000 0.000000
O O10 0.284052 0.637904 0.550272
O O11 0.070287 0.956246 0.164312
O O12 0.500000 0.000000 0.500000
O O13 0.327666 0.044365 0.201777
O O14 0.267951 0.187946 0.914769
O O15 0.650776 0.473304 0.958593
#
# Coordination Sequence:
#
# PCOD9009769 Si02
#       7
#     2   2   2   2   2   2   2
#     4  10  22  40  58  88 124 154 200 250 292 350
#     4  10  21  40  59  85 124 152 198 253 285 353
#     4  10  22  38  60  87 119 158 199 243 296 352
#     4  10  22  38  60  87 119 158 199 243 296 352
#     4  11  22  38  61  88 119 161 198 242 303 352
#     4  11  22  38  61  88 119 161 198 242 303 352
#     4  10  21  40  59  85 124 152 198 253 285 353
#
# _framework density 20.180184000000001
#
# number of rings (size 3 to 8) (size 9 to 14) (size 15 to 20)
#    0.000    1.714    1.429    2.571    0.000    3.429 
#    2.571    0.000    0.000    0.000    0.000    0.000 
#    0.000    0.000    0.000    0.000    0.000    0.000 
#
# Total GULP energy -78147.098326 kJ/mol
# GULP energy per Si atom -5581.935595 kJ/mol
# Density = 2.013425 g / cm^3
# Si number density = 20.180184 Si / 1000 Ang^3
#
#
#
# Elastic Constant Matrix: (Units=GPa)
#
#
# Indices 1 2 3 4 5 6 
#
# 1 55.5738 18.8704 5.1819 4.7649 0.6821 9.1642
# 2 18.8704 80.1415 25.1237 9.3428 -22.6891 -5.2604
# 3 5.1819 25.1237 55.6840 2.2626 -3.6654 9.5773
# 4 4.7649 9.3428 2.2626 25.0594 -11.6770 -1.7501
# 5 0.6821 -22.6891 -3.6654 -11.6770 49.8532 9.2285
# 6 9.1642 -5.2604 9.5773 -1.7501 9.2285 29.2469
#
#
#
# Elastic Compliance Matrix: (Units=1/GPa)
#
#
# Indices 1 2 3 4 5 6 
#
# 1 0.021740 -0.006696 0.002396 -0.003586 -0.002485 -0.008231
# 2 -0.006696 0.019241 -0.008614 -0.001567 0.006706 0.006170
# 3 0.002396 -0.008614 0.023283 -0.000258 -0.000491 -0.009785
# 4 -0.003586 -0.001567 -0.000258 0.045875 0.009964 0.000527
# 5 -0.002485 0.006706 -0.000491 0.009964 0.026482 -0.005614
# 6 -0.008231 0.006170 -0.009785 0.000527 -0.005614 0.042888
#
#
# Mechanical properties :
#
#
# Convention : Reuss Voigt Hill
#
# Bulk Modulus (GPa) = 26.01740 32.19459 29.10600
# Shear Modulus (GPa) = 22.92009 30.31346 26.61677
#
# Velocity S-wave (km/s) = 3.37378 3.87995 3.63568
# Velocity P-wave (km/s) = 5.30066 6.00502 5.66380
#
# Compressibility (1/GPa) = 0.03843581
#
# Stress axis : x y z
#
# Youngs Moduli (GPa) = 45.99909 51.97156 42.94910
#
# Poissons Ratio (x) = 0.34798 -0.10290
# Poissons Ratio (y) = 0.30799 0.36998
# Poissons Ratio (z) = -0.11020 0.44770
#
# Static dielectric constant tensor:
#      x y z
#    x 1.726290 -0.038820 0.007700 
#    y -0.038820 1.705460 0.001600 
#    z 0.007700 0.001600 1.714330 
# 
# From -- ./inp_files/10159.got.cif
#   From: 2010.05.17/outbox.cif.g08.bks.cpg/sg2_6_cif.got.tgz:10159.got - 2010.06.03 11:33:40.
