data_PCOD9009562
_publ_section_title
;
Structure prediction by ZEFSAII (Michael W. Deem and Ramdas Pophale) SiO2 
 PCOD9009562
Probable space group: P -1
;
_chemical_formula_sum "Si O2"
_cell_formula_units_Z 10
_cell_length_a 7.964290
_cell_length_b 13.292755
_cell_length_c 5.437836
_cell_angle_alpha 124.264042
_cell_angle_beta 62.439785
_cell_angle_gamma 126.428543
_cell_volume 375.611879
_symmetry_space_group_name_H-M "P -1"
_symmetry_group_IT_number 2
_symmetry_cell_setting 'triclinic'
loop_
_space_group_symop_operation_xyz
x,y,z
-x,-y,-z
loop_
_atom_site_type_symbol
_atom_site_label
_atom_site_fract_x
_atom_site_fract_y
_atom_site_fract_z
Si Si1 0.636440 0.622011 0.392366
Si Si2 0.070330 0.797418 0.778222
Si Si3 0.748065 0.924907 0.793207
Si Si4 0.201163 0.477771 0.263941
Si Si5 0.690001 0.124591 0.785313
O O1 0.500000 0.500000 0.500000
O O2 0.761335 0.785079 0.570017
O O3 0.433528 0.600777 0.325215
O O4 0.787943 0.569145 0.083671
O O5 0.197262 0.815279 0.464653
O O6 0.850670 0.661345 0.740309
O O7 0.198885 0.789294 0.923959
O O8 0.058019 0.935858 0.048152
O O9 0.693377 0.981358 0.654578
O O10 0.549599 0.897607 0.067987
O O11 0.000000 0.500000 0.500000
#
# Coordination Sequence:
#
# PCOD9009562 Si02
#       5
#     2   2   2   2   2
#     4  11  27  47  69 108 146 191 237 305 364 436
#     4  10  21  39  70 101 133 187 243 291 355 422
#     4   9  21  39  67 101 143 182 241 295 359 424
#     4  11  27  46  71 104 147 194 242 296 368 436
#     4   9  20  37  71 105 136 185 239 300 354 425
#
# _framework density 26.62323
#
# number of rings (size 3 to 8) (size 9 to 14) (size 15 to 20)
#    1.200    0.800    0.000    1.800    5.600    4.800 
#    0.000    2.000    0.000    0.000    0.000    0.000 
#    0.000    0.000    0.000    0.000    0.000    0.000 
#
# Total GULP energy -55833.472181 kJ/mol
# GULP energy per Si atom -5583.347218 kJ/mol
# Density = 2.656263 g / cm^3
# Si number density = 26.623230 Si / 1000 Ang^3
#
#
#
# Elastic Constant Matrix: (Units=GPa)
#
#
# Indices 1 2 3 4 5 6 
#
# 1 66.9204 11.8580 33.8266 14.7022 -13.3554 19.0970
# 2 11.8580 129.6773 77.4880 -4.8407 4.8146 32.3390
# 3 33.8266 77.4880 141.3731 -5.7037 -20.7399 9.8937
# 4 14.7022 -4.8407 -5.7037 79.3434 9.6703 -0.5276
# 5 -13.3554 4.8146 -20.7399 9.6703 46.5361 0.7566
# 6 19.0970 32.3390 9.8937 -0.5276 0.7566 42.0565
#
#
#
# Elastic Compliance Matrix: (Units=1/GPa)
#
#
# Indices 1 2 3 4 5 6 
#
# 1 0.023193 0.004801 -0.006853 -0.005115 0.004376 -0.012754
# 2 0.004801 0.016522 -0.010008 -0.000128 -0.004563 -0.012450
# 3 -0.006853 -0.010008 0.014491 0.001119 0.005175 0.007319
# 4 -0.005115 -0.000128 0.001119 0.014119 -0.003929 0.002406
# 5 0.004376 -0.004563 0.005175 -0.003929 0.026343 -0.000219
# 6 -0.012754 -0.012450 0.007319 0.002406 -0.000219 0.037454
#
#
# Mechanical properties :
#
#
# Convention : Reuss Voigt Hill
#
# Bulk Modulus (GPa) = 33.23714 64.92400 49.08057
# Shear Modulus (GPa) = 30.07149 47.90707 38.98928
#
# Velocity S-wave (km/s) = 3.36448 4.24659 3.83101
# Velocity P-wave (km/s) = 5.25398 6.96304 6.16799
#
# Compressibility (1/GPa) = 0.03008683
#
# Stress axis : x y z
#
# Youngs Moduli (GPa) = 43.11611 60.52549 69.00919
#
# Poissons Ratio (x) = -0.29061 0.47293
# Poissons Ratio (y) = -0.20702 0.69064
# Poissons Ratio (z) = 0.29548 0.60574
#
# Static dielectric constant tensor:
#      x y z
#    x 2.181690 -0.060660 0.148430 
#    y -0.060660 2.164750 -0.001400 
#    z 0.148430 -0.001400 2.188970 
# 
# From -- ./inp_files/21281.got.cif
#   From: 2010.05.17/outbox.cif.g08.bks.cpg/sg2_11_cif.got.tgz:21281.got - 2010.06.03 11:33:40.
