data_PCOD9009589
_publ_section_title
;
Structure prediction by ZEFSAII (Michael W. Deem and Ramdas Pophale) SiO2 
 PCOD9009589
Probable space group: P -1
;
_chemical_formula_sum "Si O2"
_cell_formula_units_Z 14
_cell_length_a 11.948372
_cell_length_b 23.537996
_cell_length_c 8.545118
_cell_angle_alpha 32.436105
_cell_angle_beta 39.306567
_cell_angle_gamma 29.829571
_cell_volume 633.333075
_symmetry_space_group_name_H-M "P -1"
_symmetry_group_IT_number 2
_symmetry_cell_setting 'triclinic'
loop_
_space_group_symop_operation_xyz
x,y,z
-x,-y,-z
loop_
_atom_site_type_symbol
_atom_site_label
_atom_site_fract_x
_atom_site_fract_y
_atom_site_fract_z
Si Si1 0.965251 0.667201 0.197294
Si Si2 0.048765 0.177606 0.895524
Si Si3 0.019812 0.370068 0.237075
Si Si4 0.531056 0.115327 0.220125
Si Si5 0.456911 0.897291 0.106257
Si Si6 0.742110 0.550517 0.854541
Si Si7 0.683314 0.155190 0.290273
O O1 0.732515 0.780858 0.087029
O O2 0.876291 0.612255 0.545608
O O3 0.024947 0.753318 0.016606
O O4 0.187559 0.531349 0.194193
O O5 0.971343 0.297126 0.582425
O O6 0.930960 0.113107 0.129897
O O7 0.323142 0.060637 0.870914
O O8 0.280292 0.256471 0.176607
O O9 0.000000 0.500000 0.000000
O O10 0.851004 0.426568 0.143783
O O11 0.653741 0.105075 0.272857
O O12 0.500000 0.000000 0.500000
O O13 0.615296 0.121803 0.941591
O O14 0.367253 0.885489 0.396397
O O15 0.497791 0.678960 0.882086
#
# Coordination Sequence:
#
# PCOD9009589 Si02
#       7
#     2   2   2   2   2   2   2
#     4  10  21  39  70  94 126 174 237 273 324 399
#     4  12  25  42  66 100 140 181 215 283 349 401
#     4  12  21  42  68  96 132 174 234 280 326 398
#     4  12  25  44  73 103 128 181 238 279 329 405
#     4  11  24  44  70  96 132 180 227 280 331 400
#     4  10  21  40  65  96 126 177 226 277 329 397
#     4  11  27  45  64 101 147 173 218 283 351 403
#
# _framework density 22.105271999999999
#
# number of rings (size 3 to 8) (size 9 to 14) (size 15 to 20)
#    0.000    0.857    5.714    1.714    2.000    1.714 
#    2.571    0.000    0.000    0.000    0.000    0.000 
#    0.000    0.000    0.000    0.000    0.000    0.000 
#
# Total GULP energy -77950.087453 kJ/mol
# GULP energy per Si atom -5567.863389 kJ/mol
# Density = 2.205496 g / cm^3
# Si number density = 22.105272 Si / 1000 Ang^3
#
#
#
# Elastic Constant Matrix: (Units=GPa)
#
#
# Indices 1 2 3 4 5 6 
#
# 1 139.5157 38.7802 52.0000 11.2751 7.4668 21.9496
# 2 38.7802 96.8295 24.5479 -16.2853 -7.8368 16.3519
# 3 52.0000 24.5479 75.9789 -11.2956 21.2562 1.3540
# 4 11.2751 -16.2853 -11.2956 37.1264 3.9369 5.4697
# 5 7.4668 -7.8368 21.2562 3.9369 31.9805 -4.7726
# 6 21.9496 16.3519 1.3540 5.4697 -4.7726 29.6394
#
#
#
# Elastic Compliance Matrix: (Units=1/GPa)
#
#
# Indices 1 2 3 4 5 6 
#
# 1 0.012959 -0.002776 -0.009807 -0.007596 0.002890 -0.005750
# 2 -0.002776 0.014827 -0.002983 0.006935 0.004432 -0.006554
# 3 -0.009807 -0.002983 0.027453 0.011505 -0.017704 0.002680
# 4 -0.007596 0.006935 0.011505 0.037917 -0.009934 -0.007323
# 5 0.002890 0.004432 -0.017704 -0.009934 0.045474 0.005379
# 6 -0.005750 -0.006554 0.002680 -0.007323 0.005379 0.043708
#
#
# Mechanical properties :
#
#
# Convention : Reuss Voigt Hill
#
# Bulk Modulus (GPa) = 41.48208 60.33116 50.90662
# Shear Modulus (GPa) = 22.57291 32.88233 27.72762
#
# Velocity S-wave (km/s) = 3.19902 3.86104 3.54551
# Velocity P-wave (km/s) = 5.69661 6.87232 6.31190
#
# Compressibility (1/GPa) = 0.02410679
#
# Stress axis : x y z
#
# Youngs Moduli (GPa) = 77.16942 67.44252 36.42612
#
# Poissons Ratio (x) = 0.18725 0.35723
# Poissons Ratio (y) = 0.21425 0.10864
# Poissons Ratio (z) = 0.75681 0.20115
#
# Static dielectric constant tensor:
#      x y z
#    x 1.899590 0.041830 0.051140 
#    y 0.041830 1.846560 0.011740 
#    z 0.051140 0.011740 1.803440 
# 
# From -- ./inp_files/243768.got.cif
#   From: 2010.05.17/outbox.cif.g08.bks.cpg/sg2_122_cif.got.tgz:243768.got - 2010.06.03 11:33:40.
