data_PCOD9009471
_publ_section_title
;
Structure prediction by ZEFSAII (Michael W. Deem and Ramdas Pophale) SiO2 
 PCOD9009471
Probable space group: P -1
;
_chemical_formula_sum "Si O2"
_cell_formula_units_Z 16
_cell_length_a 14.871992
_cell_length_b 12.669211
_cell_length_c 9.246988
_cell_angle_alpha 121.587693
_cell_angle_beta 105.648550
_cell_angle_gamma 124.059208
_cell_volume 741.158820
_symmetry_space_group_name_H-M "P -1"
_symmetry_group_IT_number 2
_symmetry_cell_setting 'triclinic'
loop_
_space_group_symop_operation_xyz
x,y,z
-x,-y,-z
loop_
_atom_site_type_symbol
_atom_site_label
_atom_site_fract_x
_atom_site_fract_y
_atom_site_fract_z
Si Si1 0.937121 0.792690 0.376119
Si Si2 0.988458 0.583609 0.186986
Si Si3 0.385337 0.112525 0.190859
Si Si4 0.406713 0.918494 0.249242
Si Si5 0.574760 0.475022 0.112617
Si Si6 0.282747 0.367537 0.401357
Si Si7 0.632707 0.993750 0.204836
Si Si8 0.948899 0.111613 0.178175
O O1 0.981350 0.723509 0.246397
O O2 0.725603 0.570645 0.157742
O O3 0.025891 0.860871 0.618907
O O4 0.000000 0.000000 0.500000
O O5 0.803223 0.350667 0.023752
O O6 0.161625 0.753679 0.481835
O O7 0.000000 0.500000 0.000000
O O8 0.536397 0.387997 0.426382
O O9 0.425501 0.082000 0.328740
O O10 0.399760 0.042727 0.005593
O O11 0.181777 0.930572 0.965995
O O12 0.507043 0.947677 0.198179
O O13 0.500000 0.000000 0.500000
O O14 0.665528 0.623975 0.409850
O O15 0.500000 0.500000 0.000000
O O16 0.424142 0.207333 0.906659
O O17 0.146859 0.327560 0.348492
O O18 0.163498 0.138102 0.093687
#
# Coordination Sequence:
#
# PCOD9009471 Si02
#       8
#     2   2   2   2   2   2   2   2
#     4  11  23  42  72 103 138 181 229 289 347 408
#     4  12  25  47  71  99 144 184 229 291 351 416
#     4  11  24  42  72  94 133 189 228 283 350 410
#     4  12  27  46  65 101 136 176 237 291 342 422
#     4  10  21  39  69 102 140 178 223 288 348 412
#     4   9  22  41  66  99 137 175 228 283 340 413
#     4  11  23  45  68  96 137 179 238 281 342 421
#     4  10  21  44  64  99 138 173 234 281 336 421
#
# _framework density 21.587814999999999
#
# number of rings (size 3 to 8) (size 9 to 14) (size 15 to 20)
#    0.000    1.250    3.750    1.500    1.750    3.500 
#    6.750    0.000    0.000    0.000    0.000    0.000 
#    0.000    0.000    0.000    0.000    0.000    0.000 
#
# Total GULP energy -89437.591564 kJ/mol
# GULP energy per Si atom -5589.849473 kJ/mol
# Density = 2.153868 g / cm^3
# Si number density = 21.587815 Si / 1000 Ang^3
#
#
#
# Elastic Constant Matrix: (Units=GPa)
#
#
# Indices 1 2 3 4 5 6 
#
# 1 124.6202 31.5751 29.6921 -10.5634 10.0267 -3.4997
# 2 31.5751 74.5358 20.5634 -10.7738 21.1783 -20.5922
# 3 29.6921 20.5634 99.1289 -1.3007 17.3847 2.9271
# 4 -10.5634 -10.7738 -1.3007 29.0059 2.1801 11.6100
# 5 10.0267 21.1783 17.3847 2.1801 43.1330 4.2028
# 6 -3.4997 -20.5922 2.9271 11.6100 4.2028 29.6299
#
#
#
# Elastic Compliance Matrix: (Units=1/GPa)
#
#
# Indices 1 2 3 4 5 6 
#
# 1 0.009658 -0.004043 -0.002055 0.002962 0.000684 -0.002724
# 2 -0.004043 0.024187 -0.002242 0.001189 -0.011823 0.017764
# 3 -0.002055 -0.002242 0.011760 0.000220 -0.002916 -0.002635
# 4 0.002962 0.001189 0.000220 0.042200 -0.002023 -0.015094
# 5 0.000684 -0.011823 -0.002916 -0.002023 0.031227 -0.011485
# 6 -0.002724 0.017764 -0.002635 -0.015094 -0.011485 0.053577
#
#
# Mechanical properties :
#
#
# Convention : Reuss Voigt Hill
#
# Bulk Modulus (GPa) = 34.57122 51.32735 42.94929
# Shear Modulus (GPa) = 25.13445 34.78404 29.95925
#
# Velocity S-wave (km/s) = 3.41587 4.01843 3.72934
# Velocity P-wave (km/s) = 5.62197 6.73484 6.20341
#
# Compressibility (1/GPa) = 0.02892579
#
# Stress axis : x y z
#
# Youngs Moduli (GPa) = 103.54181 41.34512 85.03059
#
# Poissons Ratio (x) = 0.16716 0.17472
# Poissons Ratio (y) = 0.41863 0.19061
# Poissons Ratio (z) = 0.21276 0.09268
#
# Static dielectric constant tensor:
#      x y z
#    x 1.829630 -0.003950 -0.024050 
#    y -0.003950 1.813610 0.008100 
#    z -0.024050 0.008100 1.771780 
# 
# From -- ./inp_files/308341.got.cif
#   From: 2010.05.17/outbox.cif.g08.bks.cpg/sg2_155_cif.got.tgz:308341.got - 2010.06.03 11:33:40.
