data_PCOD9009510
_publ_section_title
;
Structure prediction by ZEFSAII (Michael W. Deem and Ramdas Pophale) SiO2 
 PCOD9009510
Probable space group: P -1
;
_chemical_formula_sum "Si O2"
_cell_formula_units_Z 12
_cell_length_a 9.775336
_cell_length_b 9.462141
_cell_length_c 7.584336
_cell_angle_alpha 49.519212
_cell_angle_beta 83.299381
_cell_angle_gamma 65.998427
_cell_volume 476.362155
_symmetry_space_group_name_H-M "P -1"
_symmetry_group_IT_number 2
_symmetry_cell_setting 'triclinic'
loop_
_space_group_symop_operation_xyz
x,y,z
-x,-y,-z
loop_
_atom_site_type_symbol
_atom_site_label
_atom_site_fract_x
_atom_site_fract_y
_atom_site_fract_z
Si Si1 0.462957 0.306174 0.932112
Si Si2 0.307149 0.527801 0.145954
Si Si3 0.946273 0.792105 0.397367
Si Si4 0.629331 0.909198 0.405378
Si Si5 0.015984 0.110830 0.226353
Si Si6 0.848201 0.648353 0.169030
O O1 0.593957 0.383430 0.828039
O O2 0.315825 0.353619 0.797886
O O3 0.389738 0.418314 0.039244
O O4 0.548584 0.058619 0.135251
O O5 0.308977 0.335905 0.409957
O O6 0.142353 0.701301 0.969534
O O7 0.782229 0.938209 0.390519
O O8 0.899922 0.727635 0.271535
O O9 0.032960 0.591898 0.667543
O O10 0.047531 0.914775 0.254708
O O11 0.500000 0.000000 0.500000
O O12 0.000000 0.000000 0.500000
O O13 0.137605 0.205700 0.105899
#
# Coordination Sequence:
#
# PCOD9009510 Si02
#       6
#     2   2   2   2   2   2
#     4  10  22  39  65  96 129 174 218 270 326 387
#     4  10  21  40  64  96 136 161 222 277 323 380
#     4  11  24  46  67  95 140 178 212 272 336 392
#     4  10  21  39  69  93 133 172 215 272 326 382
#     4  12  25  40  70 100 128 175 225 274 325 390
#     4  11  26  44  67  98 138 175 219 267 334 401
#
# _framework density 25.190918
#
# number of rings (size 3 to 8) (size 9 to 14) (size 15 to 20)
#    0.000    1.333    3.333    1.500    4.667    3.333 
#    0.000    0.833    0.000    0.000    0.000    0.000 
#    0.000    0.000    0.000    0.000    0.000    0.000 
#
# Total GULP energy -66998.969262 kJ/mol
# GULP energy per Si atom -5583.247439 kJ/mol
# Density = 2.513358 g / cm^3
# Si number density = 25.190918 Si / 1000 Ang^3
#
#
#
# Elastic Constant Matrix: (Units=GPa)
#
#
# Indices 1 2 3 4 5 6 
#
# 1 104.6658 13.3943 39.0296 -12.9606 14.1653 8.3525
# 2 13.3943 53.4380 34.0355 -7.5240 -3.4344 12.9588
# 3 39.0296 34.0355 123.2960 -21.8549 -2.8812 10.3488
# 4 -12.9606 -7.5240 -21.8549 41.7562 0.9723 1.3122
# 5 14.1653 -3.4344 -2.8812 0.9723 43.4013 -3.3245
# 6 8.3525 12.9588 10.3488 1.3122 -3.3245 35.2239
#
#
#
# Elastic Compliance Matrix: (Units=1/GPa)
#
#
# Indices 1 2 3 4 5 6 
#
# 1 0.011807 -0.000382 -0.003174 0.002105 -0.004311 -0.002212
# 2 -0.000382 0.024492 -0.005748 0.001486 0.001098 -0.007183
# 3 -0.003174 -0.005748 0.011481 0.003977 0.001213 -0.000539
# 4 0.002105 0.001486 0.003977 0.027083 -0.001167 -0.003333
# 5 -0.004311 0.001098 0.001213 -0.001167 0.024844 0.002650
# 6 -0.002212 -0.007183 -0.000539 -0.003333 0.002650 0.032090
#
#
# Mechanical properties :
#
#
# Convention : Reuss Voigt Hill
#
# Bulk Modulus (GPa) = 34.28063 50.47986 42.38024
# Shear Modulus (GPa) = 31.22491 37.07232 34.14861
#
# Velocity S-wave (km/s) = 3.52452 3.84038 3.68583
# Velocity P-wave (km/s) = 5.49553 6.30453 5.91388
#
# Compressibility (1/GPa) = 0.02917099
#
# Stress axis : x y z
#
# Youngs Moduli (GPa) = 84.69287 40.83026 87.10404
#
# Poissons Ratio (x) = 0.01561 0.27649
# Poissons Ratio (y) = 0.03237 0.50066
# Poissons Ratio (z) = 0.26883 0.23469
#
# Static dielectric constant tensor:
#      x y z
#    x 2.070320 0.046680 -0.011420 
#    y 0.046680 2.129820 0.065700 
#    z -0.011420 0.065700 1.975600 
# 
# From -- ./inp_files/156469.got.cif
#   From: 2010.05.17/outbox.cif.g08.bks.cpg/sg2_79_cif.got.tgz:156469.got - 2010.06.03 11:33:40.
