data_PCOD9009605
_publ_section_title
;
Structure prediction by ZEFSAII (Michael W. Deem and Ramdas Pophale) SiO2 
 PCOD9009605
Probable space group: P -1
;
_chemical_formula_sum "Si O2"
_cell_formula_units_Z 16
_cell_length_a 19.379424
_cell_length_b 7.442290
_cell_length_c 8.447330
_cell_angle_alpha 36.835882
_cell_angle_beta 55.820265
_cell_angle_gamma 51.597782
_cell_volume 566.968598
_symmetry_space_group_name_H-M "P -1"
_symmetry_group_IT_number 2
_symmetry_cell_setting 'triclinic'
loop_
_space_group_symop_operation_xyz
x,y,z
-x,-y,-z
loop_
_atom_site_type_symbol
_atom_site_label
_atom_site_fract_x
_atom_site_fract_y
_atom_site_fract_z
Si Si1 0.220906 0.140437 0.462391
Si Si2 0.416707 0.409245 0.229220
Si Si3 0.484353 0.222240 0.612740
Si Si4 0.663510 0.801750 0.980501
Si Si5 0.082048 0.797052 0.426773
Si Si6 0.274015 0.713386 0.972161
Si Si7 0.837584 0.372190 0.238628
Si Si8 0.984322 0.749241 0.076996
O O1 0.155399 0.973798 0.597415
O O2 0.303777 0.999362 0.331155
O O3 0.052766 0.502565 0.616028
O O4 0.239047 0.035561 0.694085
O O5 0.423127 0.366284 0.437887
O O6 0.326541 0.669362 0.097492
O O7 0.500000 0.500000 0.000000
O O8 0.433081 0.061965 0.371093
O O9 0.500000 0.500000 0.500000
O O10 0.427604 0.062396 0.906567
O O11 0.655232 0.514553 0.083860
O O12 0.748063 0.632847 0.103683
O O13 0.206477 0.513316 0.206550
O O14 0.158737 0.662764 0.552852
O O15 0.083967 0.045092 0.114302
O O16 0.000000 0.000000 0.500000
O O17 0.923174 0.426741 0.011595
O O18 0.000000 0.000000 0.000000
#
# Coordination Sequence:
#
# PCOD9009605 Si02
#       8
#     2   2   2   2   2   2   2   2
#     4   9  21  37  67  96 130 179 224 277 343 413
#     4  11  26  41  70 101 137 176 234 292 358 416
#     4  11  26  46  73 102 135 184 237 295 354 421
#     4   9  22  40  68  99 132 177 236 282 344 423
#     4  10  22  39  69  98 132 177 232 278 325 410
#     4   9  21  39  65  94 133 174 227 276 344 409
#     4  10  21  39  70  97 133 181 227 274 344 405
#     4  11  24  41  65 102 141 180 226 281 341 402
#
# _framework density 28.220257
#
# number of rings (size 3 to 8) (size 9 to 14) (size 15 to 20)
#    0.750    1.250    0.000    2.625   12.250    4.000 
#    0.000    4.375    0.000    0.000    0.000    0.000 
#    0.000    0.000    0.000    0.000    0.000    0.000 
#
# Total GULP energy -89636.854178 kJ/mol
# GULP energy per Si atom -5602.303386 kJ/mol
# Density = 2.815603 g / cm^3
# Si number density = 28.220257 Si / 1000 Ang^3
#
#
#
# Elastic Constant Matrix: (Units=GPa)
#
#
# Indices 1 2 3 4 5 6 
#
# 1 142.9739 40.3932 44.4772 -13.5794 26.2960 6.2815
# 2 40.3932 116.4864 30.5699 6.6130 7.8798 22.2688
# 3 44.4772 30.5699 168.1237 -13.2676 -0.5591 -16.3371
# 4 -13.5794 6.6130 -13.2676 38.4439 -9.9501 0.6432
# 5 26.2960 7.8798 -0.5591 -9.9501 63.7092 -12.8523
# 6 6.2815 22.2688 -16.3371 0.6432 -12.8523 38.1193
#
#
#
# Elastic Compliance Matrix: (Units=1/GPa)
#
#
# Indices 1 2 3 4 5 6 
#
# 1 0.009236 -0.001968 -0.002205 0.001894 -0.003824 -0.002638
# 2 -0.001968 0.012275 -0.002969 -0.004528 -0.003285 -0.009150
# 3 -0.002205 -0.002969 0.007967 0.003191 0.003162 0.006524
# 4 0.001894 -0.004528 0.003191 0.029899 0.005494 0.005049
# 5 -0.003824 -0.003285 0.003162 0.005494 0.020747 0.010807
# 6 -0.002638 -0.009150 0.006524 0.005049 0.010807 0.038368
#
#
# Mechanical properties :
#
#
# Convention : Reuss Voigt Hill
#
# Bulk Modulus (GPa) = 65.81599 73.16274 69.48937
# Shear Modulus (GPa) = 36.27403 48.86405 42.56904
#
# Velocity S-wave (km/s) = 3.58912 4.16567 3.88810
# Velocity P-wave (km/s) = 6.36778 7.00849 6.69581
#
# Compressibility (1/GPa) = 0.01519388
#
# Stress axis : x y z
#
# Youngs Moduli (GPa) = 108.27773 81.46799 125.51138
#
# Poissons Ratio (x) = 0.16036 0.27675
# Poissons Ratio (y) = 0.21313 0.37259
# Poissons Ratio (z) = 0.23875 0.24185
#
# Static dielectric constant tensor:
#      x y z
#    x 2.205150 -0.010550 0.015170 
#    y -0.010550 2.318510 0.030620 
#    z 0.015170 0.030620 2.190050 
# 
# From -- ./inp_files/356775.got.cif
#   From: 2010.05.17/outbox.cif.g08.bks.cpg/sg2_179_cif.got.tgz:356775.got - 2010.06.03 11:33:40.
