data_PCOD9009407
_publ_section_title
;
Structure prediction by ZEFSAII (Michael W. Deem and Ramdas Pophale) SiO2 
 PCOD9009407
Probable space group: P -1
;
_chemical_formula_sum "Si O2"
_cell_formula_units_Z 12
_cell_length_a 10.152100
_cell_length_b 12.254904
_cell_length_c 7.658939
_cell_angle_alpha 78.362217
_cell_angle_beta 73.911794
_cell_angle_gamma 135.439604
_cell_volume 517.700702
_symmetry_space_group_name_H-M "P -1"
_symmetry_group_IT_number 2
_symmetry_cell_setting 'triclinic'
loop_
_space_group_symop_operation_xyz
x,y,z
-x,-y,-z
loop_
_atom_site_type_symbol
_atom_site_label
_atom_site_fract_x
_atom_site_fract_y
_atom_site_fract_z
Si Si1 0.061191 0.020130 0.174636
Si Si2 0.549385 0.642144 0.546629
Si Si3 0.721084 0.062734 0.925207
Si Si4 0.257125 0.389579 0.056278
Si Si5 0.432477 0.096192 0.604135
Si Si6 0.143089 0.781571 0.529837
O O1 0.831182 0.823302 0.429000
O O2 0.264460 0.059672 0.093021
O O3 0.113705 0.179538 0.161116
O O4 0.000000 0.000000 0.000000
O O5 0.500000 0.500000 0.500000
O O6 0.540829 0.755784 0.421912
O O7 0.346310 0.507202 0.810098
O O8 0.893696 0.227194 0.660795
O O9 0.736429 0.068354 0.128375
O O10 0.500000 0.000000 0.000000
O O11 0.107787 0.374208 0.233722
O O12 0.500000 0.500000 0.000000
O O13 0.693668 0.216786 0.490567
O O14 0.316064 0.989247 0.494066
#
# Coordination Sequence:
#
# PCOD9009407 Si02
#       6
#     2   2   2   2   2   2
#     4  12  22  44  69  95 140 181 226 287 340 409
#     4  12  24  41  69 100 131 179 229 279 341 409
#     4  10  21  39  68  97 128 179 226 273 341 409
#     4  12  26  41  65 105 137 172 232 285 346 410
#     4  10  21  42  69  98 134 181 230 279 349 408
#     4  10  22  42  68  98 136 182 224 283 349 408
#
# _framework density 23.179414999999999
#
# number of rings (size 3 to 8) (size 9 to 14) (size 15 to 20)
#    0.000    1.000    5.000    1.000    2.333    2.000 
#    0.000    1.667    0.000    6.000    0.000    0.000 
#    0.000    0.000    0.000    0.000    0.000    0.000 
#
# Total GULP energy -66852.175115 kJ/mol
# GULP energy per Si atom -5571.014593 kJ/mol
# Density = 2.312666 g / cm^3
# Si number density = 23.179415 Si / 1000 Ang^3
#
#
#
# Elastic Constant Matrix: (Units=GPa)
#
#
# Indices 1 2 3 4 5 6 
#
# 1 134.7326 20.1626 37.7230 8.7294 -23.6554 -30.6397
# 2 20.1626 48.1476 26.4831 -7.5765 4.1079 -9.1083
# 3 37.7230 26.4831 181.3625 18.5938 -23.9494 -7.7677
# 4 8.7294 -7.5765 18.5938 34.1551 -4.0276 -2.6428
# 5 -23.6554 4.1079 -23.9494 -4.0276 41.1408 10.8068
# 6 -30.6397 -9.1083 -7.7677 -2.6428 10.8068 27.9232
#
#
#
# Elastic Compliance Matrix: (Units=1/GPa)
#
#
# Indices 1 2 3 4 5 6 
#
# 1 0.010937 -0.002996 -0.000781 -0.001903 0.003512 0.009266
# 2 -0.002996 0.029104 -0.005462 0.009815 -0.009265 0.009201
# 3 -0.000781 -0.005462 0.007462 -0.004737 0.004722 -0.002839
# 4 -0.001903 0.009815 -0.004737 0.034537 -0.002511 0.004036
# 5 0.003512 -0.009265 0.004722 -0.002511 0.032564 -0.010695
# 6 0.009266 0.009201 -0.002839 0.004036 -0.010695 0.052713
#
#
# Mechanical properties :
#
#
# Convention : Reuss Voigt Hill
#
# Bulk Modulus (GPa) = 34.45624 59.21999 46.83812
# Shear Modulus (GPa) = 25.57948 39.30210 32.44079
#
# Velocity S-wave (km/s) = 3.32557 4.12219 3.74512
# Velocity P-wave (km/s) = 5.44455 6.94698 6.24114
#
# Compressibility (1/GPa) = 0.02902232
#
# Stress axis : x y z
#
# Youngs Moduli (GPa) = 91.43688 34.35938 134.02073
#
# Poissons Ratio (x) = 0.10295 0.10473
# Poissons Ratio (y) = 0.27396 0.73206
# Poissons Ratio (z) = 0.07145 0.18768
#
# Static dielectric constant tensor:
#      x y z
#    x 1.882040 -0.002340 0.058570 
#    y -0.002340 1.820740 0.076900 
#    z 0.058570 0.076900 1.896960 
# 
# From -- ./inp_files/229022.got.cif
#   From: 2010.05.17/outbox.cif.g08.bks.cpg/sg2_115_cif.got.tgz:229022.got - 2010.06.03 11:33:40.
