data_PCOD9009462
_publ_section_title
;
Structure prediction by ZEFSAII (Michael W. Deem and Ramdas Pophale) SiO2 
 PCOD9009462
Probable space group: P -1
;
_chemical_formula_sum "Si O2"
_cell_formula_units_Z 16
_cell_length_a 8.470025
_cell_length_b 22.939788
_cell_length_c 8.563711
_cell_angle_alpha 126.500279
_cell_angle_beta 122.504648
_cell_angle_gamma 30.179054
_cell_volume 671.290972
_symmetry_space_group_name_H-M "P -1"
_symmetry_group_IT_number 2
_symmetry_cell_setting 'triclinic'
loop_
_space_group_symop_operation_xyz
x,y,z
-x,-y,-z
loop_
_atom_site_type_symbol
_atom_site_label
_atom_site_fract_x
_atom_site_fract_y
_atom_site_fract_z
Si Si1 0.534413 0.726751 0.343508
Si Si2 0.937608 0.340338 0.909960
Si Si3 0.317396 0.968242 0.945396
Si Si4 0.577929 0.734286 0.737726
Si Si5 0.531954 0.585017 0.975499
Si Si6 0.175231 0.760610 0.770231
Si Si7 0.209611 0.062754 0.718289
Si Si8 0.659271 0.838163 0.423492
O O1 0.646160 0.704310 0.543459
O O2 0.568219 0.786254 0.347653
O O3 0.162933 0.822873 0.308261
O O4 0.696532 0.606951 0.159210
O O5 0.761052 0.445517 0.856896
O O6 0.184674 0.215059 0.747239
O O7 0.695792 0.370837 0.934720
O O8 0.116682 0.338153 0.118788
O O9 0.307818 0.973552 0.761203
O O10 0.346132 0.876097 0.860412
O O11 0.018633 0.108740 0.062835
O O12 0.621544 0.918472 0.090253
O O13 0.419267 0.713953 0.698016
O O14 0.340702 0.668103 0.853568
O O15 0.921853 0.788329 0.598747
O O16 0.364191 0.983948 0.517295
#
# Coordination Sequence:
#
# PCOD9009462 Si02
#       8
#     2   2   2   2   2   2   2   2
#     4  12  23  40  72  99 137 176 222 271 332 400
#     4  11  27  47  69  98 130 175 231 278 335 392
#     4  10  21  40  67 101 139 178 214 272 332 397
#     4  12  25  40  66 104 138 176 223 271 327 404
#     4  11  25  49  72  92 132 178 224 285 333 393
#     4  11  24  43  69  99 138 177 222 273 335 395
#     4  10  21  39  69 101 138 178 215 267 341 392
#     4  11  24  42  67 102 135 174 222 273 332 399
#
# _framework density 23.834672000000001
#
# number of rings (size 3 to 8) (size 9 to 14) (size 15 to 20)
#    0.000    1.000    2.500    3.750    1.750    4.000 
#    0.000    3.125    0.000    0.000    0.000    0.000 
#    0.000    0.000    0.000    0.000    0.000    0.000 
#
# Total GULP energy -89627.371360 kJ/mol
# GULP energy per Si atom -5601.710710 kJ/mol
# Density = 2.378042 g / cm^3
# Si number density = 23.834672 Si / 1000 Ang^3
#
#
#
# Elastic Constant Matrix: (Units=GPa)
#
#
# Indices 1 2 3 4 5 6 
#
# 1 70.6743 20.7704 -6.4513 4.2328 2.0255 17.2716
# 2 20.7704 59.6716 10.1732 -4.9392 5.0859 27.2992
# 3 -6.4513 10.1732 45.0658 -5.0526 -1.1710 -2.4099
# 4 4.2328 -4.9392 -5.0526 30.1444 2.2848 -6.2057
# 5 2.0255 5.0859 -1.1710 2.2848 34.8901 1.9464
# 6 17.2716 27.2992 -2.4099 -6.2057 1.9464 32.7784
#
#
#
# Elastic Compliance Matrix: (Units=1/GPa)
#
#
# Indices 1 2 3 4 5 6 
#
# 1 0.017337 -0.003841 0.002559 -0.003997 0.000265 -0.006520
# 2 -0.003841 0.031015 -0.009015 -0.000672 -0.003195 -0.024407
# 3 0.002559 -0.009015 0.025557 0.004153 0.001263 0.008750
# 4 -0.003997 -0.000672 0.004153 0.036577 -0.002486 0.010044
# 5 0.000265 -0.003195 0.001263 -0.002486 0.029294 0.000404
# 6 -0.006520 -0.024407 0.008750 0.010044 0.000404 0.056791
#
#
# Mechanical properties :
#
#
# Convention : Reuss Voigt Hill
#
# Bulk Modulus (GPa) = 18.75632 24.93292 21.84462
# Shear Modulus (GPa) = 21.28214 29.62387 25.45301
#
# Velocity S-wave (km/s) = 2.99140 3.52929 3.27142
# Velocity P-wave (km/s) = 4.45171 5.20493 4.84299
#
# Compressibility (1/GPa) = 0.05331536
#
# Stress axis : x y z
#
# Youngs Moduli (GPa) = 57.67919 32.24253 39.12754
#
# Poissons Ratio (x) = 0.12386 -0.10013
# Poissons Ratio (y) = 0.22157 0.35273
# Poissons Ratio (z) = -0.14761 0.29066
#
# Static dielectric constant tensor:
#      x y z
#    x 1.924060 -0.013580 -0.022840 
#    y -0.013580 1.927690 0.043600 
#    z -0.022840 0.043600 1.885330 
# 
# From -- ./inp_files/226549.got.cif
#   From: 2010.05.17/outbox.cif.g08.bks.cpg/sg2_114_cif.got.tgz:226549.got - 2010.06.03 11:33:40.
