data_PCOD9009590
_publ_section_title
;
Structure prediction by ZEFSAII (Michael W. Deem and Ramdas Pophale) SiO2 
 PCOD9009590
Probable space group: P -1
;
_chemical_formula_sum "Si O2"
_cell_formula_units_Z 14
_cell_length_a 9.993314
_cell_length_b 11.886190
_cell_length_c 8.352384
_cell_angle_alpha 55.485308
_cell_angle_beta 60.904574
_cell_angle_gamma 100.956174
_cell_volume 544.884320
_symmetry_space_group_name_H-M "P -1"
_symmetry_group_IT_number 2
_symmetry_cell_setting 'triclinic'
loop_
_space_group_symop_operation_xyz
x,y,z
-x,-y,-z
loop_
_atom_site_type_symbol
_atom_site_label
_atom_site_fract_x
_atom_site_fract_y
_atom_site_fract_z
Si Si1 0.399217 0.113825 0.856328
Si Si2 0.359577 0.359416 0.832111
Si Si3 0.941713 0.849085 0.279737
Si Si4 0.383650 0.641057 0.765801
Si Si5 0.132071 0.477463 0.328106
Si Si6 0.193664 0.748154 0.576522
Si Si7 0.079857 0.953779 0.634589
O O1 0.416975 0.233587 0.894334
O O2 0.435643 0.204327 0.583350
O O3 0.594507 0.133511 0.733144
O O4 0.168651 0.936036 0.133262
O O5 0.500000 0.500000 0.500000
O O6 0.369628 0.469992 0.883558
O O7 0.125914 0.222279 0.024716
O O8 0.832303 0.641267 0.495645
O O9 0.820575 0.870972 0.460367
O O10 0.000000 0.000000 0.000000
O O11 0.213157 0.626363 0.776080
O O12 0.332279 0.641929 0.981742
O O13 0.988153 0.361432 0.353107
O O14 0.000000 0.500000 0.500000
O O15 0.192752 0.884989 0.571021
O O16 0.000000 0.000000 0.500000
#
# Coordination Sequence:
#
# PCOD9009590 Si02
#       7
#     2   2   2   2   2   2   2
#     4   8  21  38  68  96 122 168 220 266 320 376
#     4   9  16  32  58  92 123 153 203 261 305 373
#     4  11  25  44  64  94 134 171 210 266 334 388
#     4   9  19  38  65  94 126 164 216 262 318 381
#     4  12  25  40  63  99 133 168 214 268 325 381
#     4  10  21  39  70  95 123 165 226 263 315 379
#     4  11  20  38  65  89 122 171 219 257 313 386
#
# _framework density 25.693529999999999
#
# number of rings (size 3 to 8) (size 9 to 14) (size 15 to 20)
#    0.857    1.143    2.857    0.429    2.000    1.714 
#    0.000    3.571    0.000    0.000    0.000    0.000 
#    0.000    0.000    0.000    0.000    0.000    0.000 
#
# Total GULP energy -77945.941529 kJ/mol
# GULP energy per Si atom -5567.567252 kJ/mol
# Density = 2.563505 g / cm^3
# Si number density = 25.693530 Si / 1000 Ang^3
#
#
#
# Elastic Constant Matrix: (Units=GPa)
#
#
# Indices 1 2 3 4 5 6 
#
# 1 84.7279 12.3168 18.4686 7.2418 -7.2177 -20.5440
# 2 12.3168 86.5432 27.7281 33.9918 -13.4102 -44.1410
# 3 18.4686 27.7281 142.0132 6.5556 12.4016 -15.6102
# 4 7.2418 33.9918 6.5556 31.7967 -2.4977 -15.3969
# 5 -7.2177 -13.4102 12.4016 -2.4977 49.3151 20.7480
# 6 -20.5440 -44.1410 -15.6102 -15.3969 20.7480 40.6128
#
#
#
# Elastic Compliance Matrix: (Units=1/GPa)
#
#
# Indices 1 2 3 4 5 6 
#
# 1 0.014492 0.005981 -0.001366 -0.003336 -0.001458 0.012787
# 2 0.005981 0.041170 -0.002834 -0.026116 -0.005113 0.039394
# 3 -0.001366 -0.002834 0.008256 0.002459 -0.003901 0.002328
# 4 -0.003336 -0.026116 0.002459 0.056301 -0.002653 -0.006427
# 5 -0.001458 -0.005113 -0.003901 -0.002653 0.029581 -0.023912
# 6 0.012787 0.039394 0.002328 -0.006427 -0.023912 0.084581
#
#
# Mechanical properties :
#
#
# Convention : Reuss Voigt Hill
#
# Bulk Modulus (GPa) = 14.81904 47.81237 31.31570
# Shear Modulus (GPa) = 19.73862 41.32964 30.53413
#
# Velocity S-wave (km/s) = 2.77471 4.01504 3.45105
# Velocity P-wave (km/s) = 4.00568 6.33586 5.30041
#
# Compressibility (1/GPa) = 0.06748076
#
# Stress axis : x y z
#
# Youngs Moduli (GPa) = 69.00321 24.28973 121.13059
#
# Poissons Ratio (x) = -0.14529 0.16543
# Poissons Ratio (y) = -0.41274 0.34328
# Poissons Ratio (z) = 0.09424 0.06884
#
# Static dielectric constant tensor:
#      x y z
#    x 2.153900 0.156930 0.047750 
#    y 0.156930 2.181460 -0.024490 
#    z 0.047750 -0.024490 2.236440 
# 
# From -- ./inp_files/251871.got.cif
#   From: 2010.05.17/outbox.cif.g08.bks.cpg/sg2_126_cif.got.tgz:251871.got - 2010.06.03 11:33:40.
