data_PCOD9009811
_publ_section_title
;
Structure prediction by ZEFSAII (Michael W. Deem and Ramdas Pophale) SiO2 
 PCOD9009811
Probable space group: P -1
;
_chemical_formula_sum "Si O2"
_cell_formula_units_Z 16
_cell_length_a 15.989846
_cell_length_b 9.988252
_cell_length_c 5.445378
_cell_angle_alpha 128.722445
_cell_angle_beta 102.777482
_cell_angle_gamma 80.369070
_cell_volume 661.233559
_symmetry_space_group_name_H-M "P -1"
_symmetry_group_IT_number 2
_symmetry_cell_setting 'triclinic'
loop_
_space_group_symop_operation_xyz
x,y,z
-x,-y,-z
loop_
_atom_site_type_symbol
_atom_site_label
_atom_site_fract_x
_atom_site_fract_y
_atom_site_fract_z
Si Si1 0.782611 0.595966 0.924480
Si Si2 0.730461 0.181018 0.943168
Si Si3 0.666332 0.158867 0.373033
Si Si4 0.509077 0.727659 0.531721
Si Si5 0.891729 0.355765 0.413872
Si Si6 0.592009 0.629890 0.975274
Si Si7 0.228055 0.128550 0.131821
Si Si8 0.084959 0.294159 0.478895
O O1 0.836985 0.423721 0.691251
O O2 0.694277 0.597038 0.013627
O O3 0.755961 0.684782 0.748935
O O4 0.852732 0.701635 0.240525
O O5 0.694778 0.244286 0.738820
O O6 0.725969 0.974104 0.731988
O O7 0.676302 0.253584 0.225767
O O8 0.828105 0.230018 0.095943
O O9 0.566830 0.128652 0.315129
O O10 0.735598 0.001252 0.201891
O O11 0.566667 0.719337 0.802793
O O12 0.457408 0.549512 0.276607
O O13 0.559170 0.732589 0.313187
O O14 0.906145 0.521351 0.439919
O O15 0.985223 0.278151 0.451271
O O16 0.127992 0.150668 0.163025
#
# Coordination Sequence:
#
# PCOD9009811 Si02
#       8
#     2   2   2   2   2   2   2   2
#     4  11  22  41  64  90 130 170 206 258 326 377
#     4  10  22  39  66  95 122 174 209 256 311 373
#     4  10  21  41  66  88 130 166 209 257 314 368
#     4  10  21  40  59  98 122 156 209 265 305 371
#     4  10  23  38  63  97 122 166 216 265 313 369
#     4  10  23  36  64  92 126 159 204 261 317 366
#     4   9  23  40  62  92 128 174 207 258 309 380
#     4  10  22  41  62  91 132 164 212 264 311 377
#
# _framework density 24.197198
#
# number of rings (size 3 to 8) (size 9 to 14) (size 15 to 20)
#    0.750    1.250    0.000    2.625    7.000    1.500 
#    0.000    2.500    0.000    0.000    0.000    0.000 
#    0.000    0.000    0.000    0.000    0.000    0.000 
#
# Total GULP energy -89218.436576 kJ/mol
# GULP energy per Si atom -5576.152286 kJ/mol
# Density = 2.414212 g / cm^3
# Si number density = 24.197198 Si / 1000 Ang^3
#
#
#
# Elastic Constant Matrix: (Units=GPa)
#
#
# Indices 1 2 3 4 5 6 
#
# 1 188.4701 38.3576 79.1132 -4.3669 -20.9840 -41.8962
# 2 38.3576 72.2380 50.2563 -3.8381 -10.1780 -20.7515
# 3 79.1132 50.2563 108.5144 -27.4053 -22.4262 -18.7401
# 4 -4.3669 -3.8381 -27.4053 22.0261 0.8488 4.7202
# 5 -20.9840 -10.1780 -22.4262 0.8488 43.0255 2.8779
# 6 -41.8962 -20.7515 -18.7401 4.7202 2.8779 31.2489
#
#
#
# Elastic Compliance Matrix: (Units=1/GPa)
#
#
# Indices 1 2 3 4 5 6 
#
# 1 0.013112 0.006674 -0.014349 -0.017527 -0.000235 0.016076
# 2 0.006674 0.029444 -0.021823 -0.024766 -0.001959 0.019335
# 3 -0.014349 -0.021823 0.040638 0.047278 0.009249 -0.017353
# 4 -0.017527 -0.024766 0.047278 0.102032 0.010091 -0.027935
# 5 -0.000235 -0.001959 0.009249 0.010091 0.027293 -0.000107
# 6 0.016076 0.019335 -0.017353 -0.027935 -0.000107 0.060217
#
#
# Mechanical properties :
#
#
# Convention : Reuss Voigt Hill
#
# Bulk Modulus (GPa) = 41.32455 78.29740 59.81098
# Shear Modulus (GPa) = 14.71460 32.69312 23.70386
#
# Velocity S-wave (km/s) = 2.46867 3.67973 3.13327
# Velocity P-wave (km/s) = 5.02405 7.10508 6.15318
#
# Compressibility (1/GPa) = 0.02419869
#
# Stress axis : x y z
#
# Youngs Moduli (GPa) = 76.26449 33.96311 24.60727
#
# Poissons Ratio (x) = -0.22667 0.35310
# Poissons Ratio (y) = -0.50900 0.53699
# Poissons Ratio (z) = 1.09435 0.74116
#
# Static dielectric constant tensor:
#      x y z
#    x 1.927860 0.017450 -0.001000 
#    y 0.017450 1.965270 0.022710 
#    z -0.001000 0.022710 1.976260 
# 
# From -- ./inp_files/95537.got.cif
#   From: 2010.05.17/outbox.cif.g08.bks.cpg/sg2_48_cif.got.tgz:95537.got - 2010.06.03 11:33:40.
