data_PCOD9009436
_publ_section_title
;
Structure prediction by ZEFSAII (Michael W. Deem and Ramdas Pophale) SiO2 
 PCOD9009436
Probable space group: P -1
;
_chemical_formula_sum "Si O2"
_cell_formula_units_Z 14
_cell_length_a 9.031834
_cell_length_b 9.398790
_cell_length_c 25.814201
_cell_angle_alpha 144.061472
_cell_angle_beta 150.457500
_cell_angle_gamma 43.971358
_cell_volume 633.261325
_symmetry_space_group_name_H-M "P -1"
_symmetry_group_IT_number 2
_symmetry_cell_setting 'triclinic'
loop_
_space_group_symop_operation_xyz
x,y,z
-x,-y,-z
loop_
_atom_site_type_symbol
_atom_site_label
_atom_site_fract_x
_atom_site_fract_y
_atom_site_fract_z
Si Si1 0.455735 0.215584 0.907074
Si Si2 0.762164 0.724682 0.491622
Si Si3 0.585369 0.072456 0.787763
Si Si4 0.581258 0.591140 0.250156
Si Si5 0.708715 0.916144 0.990793
Si Si6 0.920922 0.184607 0.484036
Si Si7 0.235876 0.855754 0.308819
O O1 0.526385 0.090134 0.836282
O O2 0.110354 0.190387 0.809778
O O3 0.500000 0.500000 0.000000
O O4 0.649438 0.086117 0.973177
O O5 0.432352 0.679623 0.356206
O O6 0.000000 0.500000 0.500000
O O7 0.901479 0.885893 0.535677
O O8 0.736239 0.876476 0.580573
O O9 0.425285 0.311785 0.781838
O O10 0.939569 0.081184 0.888410
O O11 0.422747 0.843137 0.645437
O O12 0.389728 0.801969 0.285129
O O13 0.912628 0.580816 0.374487
O O14 0.403223 0.351661 0.133637
O O15 0.500000 0.000000 0.000000
O O16 0.000000 0.000000 0.500000
#
# Coordination Sequence:
#
# PCOD9009436 Si02
#       7
#     2   2   2   2   2   2   2
#     4  12  25  41  66  97 134 176 230 288 344 401
#     4  10  21  39  68  98 133 179 224 269 331 411
#     4  11  22  43  66  96 137 176 223 291 340 399
#     4  10  22  43  70  95 135 182 227 280 340 412
#     4  12  26  44  68  97 133 186 237 277 343 417
#     4   9  20  38  66  96 135 171 211 280 343 389
#     4  10  22  40  66  99 135 175 221 275 338 399
#
# _framework density 22.107776999999999
#
# number of rings (size 3 to 8) (size 9 to 14) (size 15 to 20)
#    0.000    1.429    1.429    3.429    4.000    1.143 
#    0.000    0.714    0.000    0.000    0.000    0.000 
#    0.000    0.000    0.000    0.000    0.000    0.000 
#
# Total GULP energy -78144.828356 kJ/mol
# GULP energy per Si atom -5581.773454 kJ/mol
# Density = 2.205746 g / cm^3
# Si number density = 22.107777 Si / 1000 Ang^3
#
#
#
# Elastic Constant Matrix: (Units=GPa)
#
#
# Indices 1 2 3 4 5 6 
#
# 1 86.6027 23.0954 26.1897 8.0631 -16.5830 9.7733
# 2 23.0954 87.4127 37.5857 -18.0245 -12.5641 4.5644
# 3 26.1897 37.5857 170.5620 -26.0493 18.9117 -3.0456
# 4 8.0631 -18.0245 -26.0493 17.7059 0.1586 -2.6583
# 5 -16.5830 -12.5641 18.9117 0.1586 40.9638 -6.9586
# 6 9.7733 4.5644 -3.0456 -2.6583 -6.9586 33.5767
#
#
#
# Elastic Compliance Matrix: (Units=1/GPa)
#
#
# Indices 1 2 3 4 5 6 
#
# 1 0.020013 -0.006325 -0.006754 -0.026456 0.008374 -0.005937
# 2 -0.006325 0.017872 -0.000041 0.021248 0.003154 0.001744
# 3 -0.006754 -0.000041 0.010717 0.019312 -0.007265 0.002967
# 4 -0.026456 0.021248 0.019312 0.120742 -0.011233 0.013795
# 5 0.008374 0.003154 -0.007265 -0.011233 0.032563 0.002334
# 6 -0.005937 0.001744 0.002967 0.013795 0.002334 0.033119
#
#
# Mechanical properties :
#
#
# Convention : Reuss Voigt Hill
#
# Bulk Modulus (GPa) = 44.71777 57.59099 51.15438
# Shear Modulus (GPa) = 18.60673 35.62969 27.11821
#
# Velocity S-wave (km/s) = 2.90425 4.01887 3.50614
# Velocity P-wave (km/s) = 5.61402 6.90230 6.29123
#
# Compressibility (1/GPa) = 0.02236248
#
# Stress axis : x y z
#
# Youngs Moduli (GPa) = 49.96742 55.95275 93.30927
#
# Poissons Ratio (x) = 0.35391 0.63023
# Poissons Ratio (y) = 0.31605 0.00378
# Poissons Ratio (z) = 0.33749 0.00227
#
# Static dielectric constant tensor:
#      x y z
#    x 1.791830 0.019740 -0.001310 
#    y 0.019740 1.836810 0.004730 
#    z -0.001310 0.004730 1.875650 
# 
# From -- ./inp_files/606896.got.cif
#   From: 2010.05.17/outbox.cif.g08.bks.cpg/sg2_304_cif.got.tgz:606896.got - 2010.06.03 11:33:40.
