data_PCOD9009446
_publ_section_title
;
Structure prediction by ZEFSAII (Michael W. Deem and Ramdas Pophale) SiO2 
 PCOD9009446
Probable space group: P -1
;
_chemical_formula_sum "Si O2"
_cell_formula_units_Z 16
_cell_length_a 8.711941
_cell_length_b 11.032920
_cell_length_c 15.560321
_cell_angle_alpha 107.102930
_cell_angle_beta 46.317866
_cell_angle_gamma 138.256288
_cell_volume 639.622559
_symmetry_space_group_name_H-M "P -1"
_symmetry_group_IT_number 2
_symmetry_cell_setting 'triclinic'
loop_
_space_group_symop_operation_xyz
x,y,z
-x,-y,-z
loop_
_atom_site_type_symbol
_atom_site_label
_atom_site_fract_x
_atom_site_fract_y
_atom_site_fract_z
Si Si1 0.085908 0.364243 0.264559
Si Si2 0.282099 0.322502 0.475879
Si Si3 0.006301 0.949524 0.807071
Si Si4 0.950486 0.627985 0.174963
Si Si5 0.195786 0.726270 0.464877
Si Si6 0.913316 0.340523 0.142796
Si Si7 0.158350 0.238796 0.918071
Si Si8 0.178605 0.966240 0.266088
O O1 0.437148 0.600209 0.200882
O O2 0.854950 0.244495 0.413204
O O3 0.896210 0.338470 0.252260
O O4 0.192372 0.273799 0.174532
O O5 0.500000 0.500000 0.500000
O O6 0.567504 0.421299 0.316309
O O7 0.005809 0.280881 0.526141
O O8 0.075052 0.128944 0.575525
O O9 0.410058 0.103239 0.677843
O O10 0.958856 0.017999 0.922099
O O11 0.925311 0.995347 0.764633
O O12 0.103267 0.559924 0.087156
O O13 0.912170 0.694289 0.118533
O O14 0.141032 0.805145 0.208698
O O15 0.000000 0.500000 0.500000
O O16 0.555236 0.166023 0.195755
O O17 0.069291 0.277586 0.044112
#
# Coordination Sequence:
#
# PCOD9009446 Si02
#       8
#     2   2   2   2   2   2   2   2
#     4  12  26  43  66 101 133 178 224 268 340 394
#     4  10  21  39  68  99 132 170 220 270 339 393
#     4  11  25  44  70  98 137 176 219 278 333 400
#     4  10  22  43  68  96 131 176 221 280 328 387
#     4  12  22  42  69  97 138 173 215 276 342 399
#     4  12  27  41  69 100 134 179 228 271 324 400
#     4  11  24  48  67  95 134 182 226 271 332 385
#     4  10  24  42  66 101 134 174 221 277 334 385
#
# _framework density 25.014752000000001
#
# number of rings (size 3 to 8) (size 9 to 14) (size 15 to 20)
#    0.000    1.000    2.500    4.125    5.250    5.000 
#    0.000    0.000    0.000    0.000    0.000    0.000 
#    0.000    0.000    0.000    0.000    0.000    0.000 
#
# Total GULP energy -89595.216369 kJ/mol
# GULP energy per Si atom -5599.701023 kJ/mol
# Density = 2.495782 g / cm^3
# Si number density = 25.014752 Si / 1000 Ang^3
#
#
#
# Elastic Constant Matrix: (Units=GPa)
#
#
# Indices 1 2 3 4 5 6 
#
# 1 121.2508 23.6812 10.7887 15.5460 12.7979 17.3673
# 2 23.6812 123.5858 4.2483 22.4453 -3.4355 3.9424
# 3 10.7887 4.2483 57.8167 21.9180 7.5099 15.7196
# 4 15.5460 22.4453 21.9180 29.3173 6.7568 -0.7545
# 5 12.7979 -3.4355 7.5099 6.7568 41.3867 3.6753
# 6 17.3673 3.9424 15.7196 -0.7545 3.6753 33.9685
#
#
#
# Elastic Compliance Matrix: (Units=1/GPa)
#
#
# Indices 1 2 3 4 5 6 
#
# 1 0.010078 -0.000722 0.002526 -0.006366 -0.002049 -0.006158
# 2 -0.000722 0.010321 0.004267 -0.011360 0.002455 -0.003321
# 3 0.002526 0.004267 0.032312 -0.029217 0.000024 -0.017392
# 4 -0.006366 -0.011360 -0.029217 0.070149 -0.006937 0.020403
# 5 -0.002049 0.002455 0.000024 -0.006937 0.026328 -0.002251
# 6 -0.006158 -0.003321 -0.017392 0.020403 -0.002251 0.041718
#
#
# Mechanical properties :
#
#
# Convention : Reuss Voigt Hill
#
# Bulk Modulus (GPa) = 15.41961 42.23216 28.82588
# Shear Modulus (GPa) = 24.95233 38.53017 31.74125
#
# Velocity S-wave (km/s) = 3.16176 3.92892 3.56603
# Velocity P-wave (km/s) = 4.41662 6.12384 5.33891
#
# Compressibility (1/GPa) = 0.06485249
#
# Stress axis : x y z
#
# Youngs Moduli (GPa) = 99.22519 96.89336 30.94778
#
# Poissons Ratio (x) = 0.06999 -0.07818
# Poissons Ratio (y) = 0.07167 -0.13205
# Poissons Ratio (z) = -0.25065 -0.41344
#
# Static dielectric constant tensor:
#      x y z
#    x 1.925110 -0.058650 0.008060 
#    y -0.058650 1.902810 0.054510 
#    z 0.008060 0.054510 2.064720 
# 
# From -- ./inp_files/315989.got.cif
#   From: 2010.05.17/outbox.cif.g08.bks.cpg/sg2_158_cif.got.tgz:315989.got - 2010.06.03 11:33:40.
