data_PCOD9009245
_publ_section_title
;
Structure prediction by ZEFSAII (Michael W. Deem and Ramdas Pophale) SiO2 
 PCOD9009245
Probable space group: P -1
;
_chemical_formula_sum "Si O2"
_cell_formula_units_Z 16
_cell_length_a 11.421495
_cell_length_b 5.994578
_cell_length_c 22.505659
_cell_angle_alpha 66.930302
_cell_angle_beta 31.000278
_cell_angle_gamma 55.726714
_cell_volume 640.705398
_symmetry_space_group_name_H-M "P -1"
_symmetry_group_IT_number 2
_symmetry_cell_setting 'triclinic'
loop_
_space_group_symop_operation_xyz
x,y,z
-x,-y,-z
loop_
_atom_site_type_symbol
_atom_site_label
_atom_site_fract_x
_atom_site_fract_y
_atom_site_fract_z
Si Si1 0.190123 0.676578 0.125655
Si Si2 0.509484 0.317273 0.433100
Si Si3 0.060395 0.671827 0.677675
Si Si4 0.903571 0.265252 0.971607
Si Si5 0.685121 0.259415 0.806017
Si Si6 0.183091 0.694470 0.373445
Si Si7 0.618362 0.696368 0.254681
Si Si8 0.642798 0.874564 0.584229
O O1 0.093520 0.827606 0.088927
O O2 0.183783 0.808087 0.178994
O O3 0.031314 0.509196 0.223528
O O4 0.500000 0.500000 0.000000
O O5 0.227471 0.492478 0.567700
O O6 0.731785 0.248806 0.391878
O O7 0.590767 0.487583 0.333700
O O8 0.496201 0.082272 0.423009
O O9 0.792442 0.959026 0.760060
O O10 0.097860 0.392064 0.882252
O O11 0.616487 0.522165 0.079834
O O12 0.000000 0.000000 0.000000
O O13 0.781732 0.403816 0.699961
O O14 0.406888 0.762182 0.289184
O O15 0.230892 0.449166 0.423170
O O16 0.885815 0.931046 0.480322
O O17 0.546583 0.965410 0.297379
#
# Coordination Sequence:
#
# PCOD9009245 Si02
#       8
#     2   2   2   2   2   2   2   2
#     4  10  24  46  69 102 144 186 237 292 348 423
#     4  10  23  40  69 108 138 185 235 301 342 429
#     4  11  23  43  69 105 146 182 240 286 361 423
#     4  11  25  46  71 104 139 186 243 293 347 427
#     4  11  25  44  70 101 140 194 228 292 363 411
#     4  10  22  39  62 102 133 182 233 285 352 431
#     4  11  22  42  67  98 141 179 236 292 354 416
#     4  10  21  39  67  97 141 182 228 288 364 411
#
# _framework density 24.972474999999999
#
# number of rings (size 3 to 8) (size 9 to 14) (size 15 to 20)
#    0.000    1.500    1.250    2.625    1.750    7.500 
#    0.000    4.375    0.000    0.000    0.000    0.000 
#    0.000    0.000    0.000    0.000    0.000    0.000 
#
# Total GULP energy -89291.085615 kJ/mol
# GULP energy per Si atom -5580.692851 kJ/mol
# Density = 2.491564 g / cm^3
# Si number density = 24.972475 Si / 1000 Ang^3
#
#
#
# Elastic Constant Matrix: (Units=GPa)
#
#
# Indices 1 2 3 4 5 6 
#
# 1 140.9359 34.5887 45.1355 -1.2004 -3.7851 -20.4815
# 2 34.5887 76.3297 42.2786 -0.4937 -2.0805 -20.8395
# 3 45.1355 42.2786 148.3210 1.1004 -8.5412 -9.6759
# 4 -1.2004 -0.4937 1.1004 37.1116 -6.8130 6.1860
# 5 -3.7851 -2.0805 -8.5412 -6.8130 43.5012 -7.0258
# 6 -20.4815 -20.8395 -9.6759 6.1860 -7.0258 29.9652
#
#
#
# Elastic Compliance Matrix: (Units=1/GPa)
#
#
# Indices 1 2 3 4 5 6 
#
# 1 0.008782 -0.001707 -0.001831 -0.000251 0.001013 0.004513
# 2 -0.001707 0.019380 -0.004142 -0.001312 0.001638 0.011628
# 3 -0.001831 -0.004142 0.008470 0.000031 0.001127 -0.001139
# 4 -0.000251 -0.001312 0.000031 0.028573 0.003399 -0.006176
# 5 0.001013 0.001638 0.001127 0.003399 0.025099 0.007378
# 6 0.004513 0.011628 -0.001139 -0.006176 0.007378 0.047181
#
#
# Mechanical properties :
#
#
# Convention : Reuss Voigt Hill
#
# Bulk Modulus (GPa) = 47.01157 67.73247 57.37202
# Shear Modulus (GPa) = 31.26254 38.35450 34.80852
#
# Velocity S-wave (km/s) = 3.54203 3.92327 3.73751
# Velocity P-wave (km/s) = 5.96609 6.90684 6.45363
#
# Compressibility (1/GPa) = 0.02127136
#
# Stress axis : x y z
#
# Youngs Moduli (GPa) = 113.87272 51.60013 118.05841
#
# Poissons Ratio (x) = 0.08808 0.21619
# Poissons Ratio (y) = 0.19438 0.48901
# Poissons Ratio (z) = 0.20852 0.21373
#
# Static dielectric constant tensor:
#      x y z
#    x 2.045910 -0.011860 0.000790 
#    y -0.011860 2.051250 -0.035370 
#    z 0.000790 -0.035370 1.985640 
# 
# From -- ./inp_files/609160.got.cif
#   From: 2010.05.17/outbox.cif.g08.bks.cpg/sg2_305_cif.got.tgz:609160.got - 2010.06.03 11:33:40.
