data_PCOD9009836
_publ_section_title
;
Structure prediction by ZEFSAII (Michael W. Deem and Ramdas Pophale) SiO2 
 PCOD9009836
Probable space group: P -1
;
_chemical_formula_sum "Si O2"
_cell_formula_units_Z 12
_cell_length_a 9.992351
_cell_length_b 10.650338
_cell_length_c 7.439108
_cell_angle_alpha 64.789394
_cell_angle_beta 50.407577
_cell_angle_gamma 53.954504
_cell_volume 491.621357
_symmetry_space_group_name_H-M "P -1"
_symmetry_group_IT_number 2
_symmetry_cell_setting 'triclinic'
loop_
_space_group_symop_operation_xyz
x,y,z
-x,-y,-z
loop_
_atom_site_type_symbol
_atom_site_label
_atom_site_fract_x
_atom_site_fract_y
_atom_site_fract_z
Si Si1 0.258789 0.886226 0.496363
Si Si2 0.926338 0.680190 0.919776
Si Si3 0.539407 0.697274 0.094217
Si Si4 0.974219 0.215160 0.602722
Si Si5 0.232609 0.673321 0.929925
Si Si6 0.391426 0.111965 0.362384
O O1 0.315612 0.776265 0.689523
O O2 0.043400 0.029228 0.628243
O O3 0.369770 0.992107 0.315218
O O4 0.336729 0.771186 0.330783
O O5 0.699134 0.732225 0.046814
O O6 0.018021 0.711308 0.640722
O O7 0.024875 0.728888 0.968075
O O8 0.000000 0.500000 0.000000
O O9 0.522139 0.785801 0.868264
O O10 0.633129 0.510856 0.104982
O O11 0.164184 0.219186 0.534702
O O12 0.807772 0.294135 0.844544
O O13 0.500000 0.000000 0.500000
#
# Coordination Sequence:
#
# PCOD9009836 Si02
#       6
#     2   2   2   2   2   2
#     4  10  22  39  59  85 121 151 196 239 290 346
#     4   9  21  38  62  88 117 154 194 240 293 342
#     4  10  21  40  60  86 116 153 201 236 284 356
#     4   9  22  38  59  88 117 148 203 233 286 351
#     4  11  22  40  61  86 123 154 186 247 295 338
#     4   9  21  38  61  86 115 156 196 242 286 343
#
# _framework density 24.409026999999998
#
# number of rings (size 3 to 8) (size 9 to 14) (size 15 to 20)
#    1.000    1.333    0.000    1.500    2.333    6.667 
#    6.000    0.833    0.000    0.000    0.000    0.000 
#    0.000    0.000    0.000    0.000    0.000    0.000 
#
# Total GULP energy -66882.395968 kJ/mol
# GULP energy per Si atom -5573.532997 kJ/mol
# Density = 2.435347 g / cm^3
# Si number density = 24.409027 Si / 1000 Ang^3
#
#
#
# Elastic Constant Matrix: (Units=GPa)
#
#
# Indices 1 2 3 4 5 6 
#
# 1 63.8115 12.5693 4.2931 -2.2734 -3.2471 -6.9034
# 2 12.5693 165.7824 101.1318 -7.4064 -11.8786 0.2597
# 3 4.2931 101.1318 151.7482 -3.2103 3.0202 -7.2931
# 4 -2.2734 -7.4064 -3.2103 52.5762 2.1442 -0.6579
# 5 -3.2471 -11.8786 3.0202 2.1442 45.4403 -5.7254
# 6 -6.9034 0.2597 -7.2931 -0.6579 -5.7254 24.5351
#
#
#
# Elastic Compliance Matrix: (Units=1/GPa)
#
#
# Indices 1 2 3 4 5 6 
#
# 1 0.016603 -0.001697 0.000900 0.000546 0.001322 0.005280
# 2 -0.001697 0.010898 -0.007354 0.000868 0.002914 -0.002076
# 3 0.000900 -0.007354 0.011664 -0.000154 -0.002213 0.003278
# 4 0.000546 0.000868 -0.000154 0.019186 -0.000569 0.000481
# 5 0.001322 0.002914 -0.002213 -0.000569 0.023692 0.005197
# 6 0.005280 -0.002076 0.003278 0.000481 0.005197 0.044465
#
#
# Mechanical properties :
#
#
# Convention : Reuss Voigt Hill
#
# Bulk Modulus (GPa) = 43.73952 68.59227 56.16590
# Shear Modulus (GPa) = 33.23807 42.06686 37.65247
#
# Velocity S-wave (km/s) = 3.69414 4.15591 3.93181
# Velocity P-wave (km/s) = 6.01281 7.15478 6.60851
#
# Compressibility (1/GPa) = 0.02286262
#
# Stress axis : x y z
#
# Youngs Moduli (GPa) = 60.23049 91.76273 85.73530
#
# Poissons Ratio (x) = 0.15574 -0.07719
# Poissons Ratio (y) = 0.10222 0.63050
# Poissons Ratio (z) = -0.05423 0.67483
#
# Static dielectric constant tensor:
#      x y z
#    x 3.341730 0.010420 -0.166680 
#    y 0.010420 1.880660 0.028260 
#    z -0.166680 0.028260 1.904900 
# 
# From -- ./inp_files/65762.got.cif
#   From: 2010.05.17/outbox.cif.g08.bks.cpg/sg2_33_cif.got.tgz:65762.got - 2010.06.03 11:33:40.
