data_PCOD9009659
_publ_section_title
;
Structure prediction by ZEFSAII (Michael W. Deem and Ramdas Pophale) SiO2 
 PCOD9009659
Probable space group: P -1
;
_chemical_formula_sum "Si O2"
_cell_formula_units_Z 12
_cell_length_a 7.217076
_cell_length_b 12.797699
_cell_length_c 9.008464
_cell_angle_alpha 122.317773
_cell_angle_beta 127.424766
_cell_angle_gamma 46.783671
_cell_volume 471.350945
_symmetry_space_group_name_H-M "P -1"
_symmetry_group_IT_number 2
_symmetry_cell_setting 'triclinic'
loop_
_space_group_symop_operation_xyz
x,y,z
-x,-y,-z
loop_
_atom_site_type_symbol
_atom_site_label
_atom_site_fract_x
_atom_site_fract_y
_atom_site_fract_z
Si Si1 0.332480 0.850927 0.681856
Si Si2 0.064484 0.448004 0.659954
Si Si3 0.292940 0.401407 0.151196
Si Si4 0.759765 0.334060 0.090387
Si Si5 0.217570 0.874263 0.308874
Si Si6 0.871511 0.831830 0.590143
O O1 0.591333 0.763189 0.852578
O O2 0.372693 0.828356 0.508220
O O3 0.141924 0.789020 0.590450
O O4 0.114824 0.023904 0.736088
O O5 0.212323 0.532330 0.844907
O O6 0.220735 0.273037 0.602911
O O7 0.000000 0.500000 0.500000
O O8 0.784293 0.511641 0.665257
O O9 0.520848 0.384872 0.135777
O O10 0.000000 0.500000 0.000000
O O11 0.740841 0.248433 0.877026
O O12 0.030820 0.219628 0.232843
O O13 0.273269 0.993619 0.354787
#
# Coordination Sequence:
#
# PCOD9009659 Si02
#       6
#     2   2   2   2   2   2
#     4   8  19  37  69 102 136 183 228 290 339 419
#     4  10  23  42  66 100 142 182 229 281 345 418
#     4  11  25  43  65 104 140 183 232 284 346 413
#     4  10  21  39  72 103 139 177 230 294 338 410
#     4   9  17  39  73 103 134 181 232 284 354 402
#     4   8  17  36  67 100 137 176 226 283 345 412
#
# _framework density 25.458736999999999
#
# number of rings (size 3 to 8) (size 9 to 14) (size 15 to 20)
#    1.000    1.667    0.000    0.500    0.000    9.333 
#    0.000    0.833    0.000    3.000    0.000    2.333 
#    0.000    0.000    0.000    0.000    0.000    0.000 
#
# Total GULP energy -66920.194574 kJ/mol
# GULP energy per Si atom -5576.682881 kJ/mol
# Density = 2.540079 g / cm^3
# Si number density = 25.458737 Si / 1000 Ang^3
#
#
#
# Elastic Constant Matrix: (Units=GPa)
#
#
# Indices 1 2 3 4 5 6 
#
# 1 104.7552 60.7045 77.3005 24.6502 -14.4560 -1.2680
# 2 60.7045 173.6613 78.6411 2.6467 -3.4444 13.4920
# 3 77.3005 78.6411 142.8783 20.6627 -8.4390 14.8890
# 4 24.6502 2.6467 20.6627 63.9864 5.9778 -4.6000
# 5 -14.4560 -3.4444 -8.4390 5.9778 48.3994 4.3398
# 6 -1.2680 13.4920 14.8890 -4.6000 4.3398 44.5930
#
#
#
# Elastic Compliance Matrix: (Units=1/GPa)
#
#
# Indices 1 2 3 4 5 6 
#
# 1 0.018985 -0.003136 -0.007928 -0.004801 0.004370 0.003215
# 2 -0.003136 0.008292 -0.003060 0.001854 -0.000994 -0.001289
# 3 -0.007928 -0.003060 0.013638 -0.001547 0.000346 -0.004046
# 4 -0.004801 0.001854 -0.001547 0.018430 -0.004038 0.002113
# 5 0.004370 -0.000994 0.000346 -0.004038 0.022662 -0.002313
# 6 0.003215 -0.001289 -0.004046 0.002113 -0.002313 0.024700
#
#
# Mechanical properties :
#
#
# Convention : Reuss Voigt Hill
#
# Bulk Modulus (GPa) = 78.94057 94.95411 86.94734
# Shear Modulus (GPa) = 35.92496 45.03902 40.48199
#
# Velocity S-wave (km/s) = 3.76054 4.21063 3.99193
# Velocity P-wave (km/s) = 7.06613 7.81136 7.44807
#
# Compressibility (1/GPa) = 0.01266776
#
# Stress axis : x y z
#
# Youngs Moduli (GPa) = 52.67218 120.59168 73.32429
#
# Poissons Ratio (x) = 0.37822 0.58131
# Poissons Ratio (y) = 0.16520 0.22436
# Poissons Ratio (z) = 0.41758 0.36899
#
# Static dielectric constant tensor:
#      x y z
#    x 2.065990 -0.052450 0.087380 
#    y -0.052450 4.729210 0.675280 
#    z 0.087380 0.675280 2.250320 
# 
# From -- ./inp_files/198122.got.cif
#   From: 2010.05.17/outbox.cif.g08.bks.cpg/sg2_100_cif.got.tgz:198122.got - 2010.06.03 11:33:40.
