data_PCOD9009580
_publ_section_title
;
Structure prediction by ZEFSAII (Michael W. Deem and Ramdas Pophale) SiO2 
 PCOD9009580
Probable space group: P -1
;
_chemical_formula_sum "Si O2"
_cell_formula_units_Z 16
_cell_length_a 13.752816
_cell_length_b 8.032127
_cell_length_c 7.730525
_cell_angle_alpha 125.962072
_cell_angle_beta 112.986992
_cell_angle_gamma 57.487528
_cell_volume 579.344411
_symmetry_space_group_name_H-M "P -1"
_symmetry_group_IT_number 2
_symmetry_cell_setting 'triclinic'
loop_
_space_group_symop_operation_xyz
x,y,z
-x,-y,-z
loop_
_atom_site_type_symbol
_atom_site_label
_atom_site_fract_x
_atom_site_fract_y
_atom_site_fract_z
Si Si1 0.325338 0.790046 0.495890
Si Si2 0.550978 0.747703 0.445028
Si Si3 0.737379 0.845143 0.790178
Si Si4 0.990687 0.876115 0.236481
Si Si5 0.097634 0.175617 0.380653
Si Si6 0.600149 0.272809 0.104181
Si Si7 0.645669 0.671737 0.942774
Si Si8 0.128062 0.403329 0.852689
O O1 0.455326 0.772110 0.540189
O O2 0.324472 0.775531 0.694641
O O3 0.331412 0.561396 0.276871
O O4 0.216037 0.987719 0.446177
O O5 0.680924 0.709004 0.556684
O O6 0.559010 0.538485 0.209824
O O7 0.500000 0.000000 0.500000
O O8 0.861081 0.788258 0.758179
O O9 0.689162 0.804562 0.915740
O O10 0.674342 0.117492 0.907290
O O11 0.892009 0.786417 0.158308
O O12 0.003844 0.066755 0.240528
O O13 0.083385 0.634513 0.075838
O O14 0.000000 0.000000 0.500000
O O15 0.067251 0.382649 0.619941
O O16 0.485679 0.226817 0.027040
O O17 0.740774 0.641956 0.135586
#
# Coordination Sequence:
#
# PCOD9009580 Si02
#       8
#     2   2   2   2   2   2   2   2
#     4  11  20  40  59  85 123 167 211 248 284 361
#     4  11  22  38  54  82 124 163 208 256 294 339
#     4  12  24  38  58  90 131 166 202 248 302 354
#     4   9  20  42  66  94 117 146 202 260 304 369
#     4  11  23  38  62  95 125 153 203 257 302 358
#     4  11  24  39  59  85 129 173 211 244 289 356
#     4  11  21  40  62  89 121 170 211 246 295 363
#     4  10  21  39  70  90 115 159 202 246 314 364
#
# _framework density 27.617424
#
# number of rings (size 3 to 8) (size 9 to 14) (size 15 to 20)
#    0.000    1.250    5.000    1.875    1.750    1.500 
#    0.000    0.625    0.000    6.750    0.000    0.000 
#    0.000    0.000    0.000    0.000    0.000    0.000 
#
# Total GULP energy -89326.226245 kJ/mol
# GULP energy per Si atom -5582.889140 kJ/mol
# Density = 2.755457 g / cm^3
# Si number density = 27.617424 Si / 1000 Ang^3
#
#
#
# Elastic Constant Matrix: (Units=GPa)
#
#
# Indices 1 2 3 4 5 6 
#
# 1 132.6148 29.2316 48.8756 12.7618 -4.3835 4.1995
# 2 29.2316 70.9787 45.7733 14.2738 -11.8602 1.5288
# 3 48.8756 45.7733 166.5242 37.6906 -6.3415 6.8320
# 4 12.7618 14.2738 37.6906 54.3207 1.7054 -3.4614
# 5 -4.3835 -11.8602 -6.3415 1.7054 51.1419 6.3775
# 6 4.1995 1.5288 6.8320 -3.4614 6.3775 43.3475
#
#
#
# Elastic Compliance Matrix: (Units=1/GPa)
#
#
# Indices 1 2 3 4 5 6 
#
# 1 0.008783 -0.002359 -0.001866 -0.000181 0.000042 -0.000494
# 2 -0.002359 0.018529 -0.003827 -0.001810 0.003745 -0.000517
# 3 -0.001866 -0.003827 0.008753 -0.004737 0.000383 -0.001498
# 4 -0.000181 -0.001810 -0.004737 0.022468 -0.002138 0.002937
# 5 0.000042 0.003745 0.000383 -0.002138 0.020975 -0.003453
# 6 -0.000494 -0.000517 -0.001498 0.002937 -0.003453 0.024114
#
#
# Mechanical properties :
#
#
# Convention : Reuss Voigt Hill
#
# Bulk Modulus (GPa) = 50.10231 68.65319 59.37775
# Shear Modulus (GPa) = 39.56248 46.17784 42.87016
#
# Velocity S-wave (km/s) = 3.78897 4.09351 3.94418
# Velocity P-wave (km/s) = 6.10923 6.87423 6.50299
#
# Compressibility (1/GPa) = 0.01995916
#
# Stress axis : x y z
#
# Youngs Moduli (GPa) = 113.85540 53.96802 114.24512
#
# Poissons Ratio (x) = 0.12734 0.21323
# Poissons Ratio (y) = 0.26864 0.43726
# Poissons Ratio (z) = 0.21250 0.20656
#
# Static dielectric constant tensor:
#      x y z
#    x 2.099510 -0.022480 0.007030 
#    y -0.022480 2.478280 -0.130340 
#    z 0.007030 -0.130340 2.117760 
# 
# From -- ./inp_files/296908.got.cif
#   From: 2010.05.17/outbox.cif.g08.bks.cpg/sg2_149_cif.got.tgz:296908.got - 2010.06.03 11:33:40.
