data_PCOD9010199
_publ_section_title
;
Structure prediction by ZEFSAII (Michael W. Deem and Ramdas Pophale) SiO2 
 PCOD9010199
Probable space group: P -1
;
_chemical_formula_sum "Si O2"
_cell_formula_units_Z 16
_cell_length_a 8.806456
_cell_length_b 17.097526
_cell_length_c 7.295874
_cell_angle_alpha 63.249245
_cell_angle_beta 58.900772
_cell_angle_gamma 98.033290
_cell_volume 733.712275
_symmetry_space_group_name_H-M "P -1"
_symmetry_group_IT_number 2
_symmetry_cell_setting 'triclinic'
loop_
_space_group_symop_operation_xyz
x,y,z
-x,-y,-z
loop_
_atom_site_type_symbol
_atom_site_label
_atom_site_fract_x
_atom_site_fract_y
_atom_site_fract_z
Si Si1 0.699248 0.010991 0.954899
Si Si2 0.698644 0.574346 0.910468
Si Si3 0.924324 0.429745 0.440441
Si Si4 0.349390 0.135072 0.167010
Si Si5 0.190485 0.795999 0.145200
Si Si6 0.530743 0.639902 0.279438
Si Si7 0.782522 0.917498 0.298317
Si Si8 0.783159 0.725716 0.377464
O O1 0.841048 0.129856 0.772600
O O2 0.746968 0.943010 0.857855
O O3 0.500000 0.000000 0.000000
O O4 0.647440 0.958851 0.242084
O O5 0.873505 0.541539 0.836789
O O6 0.776180 0.672810 0.629746
O O7 0.500000 0.500000 0.000000
O O8 0.628172 0.594199 0.127309
O O9 0.000000 0.500000 0.500000
O O10 0.852865 0.314150 0.655260
O O11 0.715694 0.422465 0.503520
O O12 0.217207 0.093496 0.474632
O O13 0.567150 0.148297 0.086991
O O14 0.395736 0.245452 0.956266
O O15 0.020961 0.775970 0.117625
O O16 0.629872 0.650391 0.404839
O O17 0.723460 0.810590 0.362603
O O18 0.000000 0.000000 0.000000
#
# Coordination Sequence:
#
# PCOD9010199 Si02
#       8
#     2   2   2   2   2   2   2   2
#     4  10  21  40  62  91 124 167 218 256 316 382
#     4  11  23  44  71  95 132 174 214 272 334 383
#     4  10  21  42  68  94 129 169 216 271 324 387
#     4  10  22  41  66  88 127 178 213 257 331 389
#     4   9  21  41  61  91 129 164 214 275 317 379
#     4  11  22  43  69  96 129 175 216 266 331 386
#     4  12  23  40  61  93 131 171 212 266 320 389
#     4  11  23  43  63  98 131 163 220 274 316 393
#
# _framework density 21.806913999999999
#
# number of rings (size 3 to 8) (size 9 to 14) (size 15 to 20)
#    0.000    1.500    5.000    0.000    0.000    3.000 
#    6.750    0.625    0.000    0.000    0.000    0.000 
#    0.000    0.000    0.000    0.000    0.000    0.000 
#
# Total GULP energy -89149.367256 kJ/mol
# GULP energy per Si atom -5571.835454 kJ/mol
# Density = 2.175728 g / cm^3
# Si number density = 21.806914 Si / 1000 Ang^3
#
#
#
# Elastic Constant Matrix: (Units=GPa)
#
#
# Indices 1 2 3 4 5 6 
#
# 1 116.8518 23.8027 13.7643 5.5583 -19.5441 14.0132
# 2 23.8027 132.8448 26.9496 6.2989 -17.4628 9.4301
# 3 13.7643 26.9496 59.9664 3.2518 -6.1889 -0.5101
# 4 5.5583 6.2989 3.2518 31.5730 -2.0208 -1.1843
# 5 -19.5441 -17.4628 -6.1889 -2.0208 38.1257 -3.4903
# 6 14.0132 9.4301 -0.5101 -1.1843 -3.4903 41.2727
#
#
#
# Elastic Compliance Matrix: (Units=1/GPa)
#
#
# Indices 1 2 3 4 5 6 
#
# 1 0.009994 -0.000655 -0.001516 -0.001312 0.004238 -0.002941
# 2 -0.000655 0.008918 -0.003501 -0.001175 0.002968 -0.001641
# 3 -0.001516 -0.003501 0.018736 -0.000856 0.000760 0.001586
# 4 -0.001312 -0.001175 -0.000856 0.032322 0.000517 0.001674
# 5 0.004238 0.002968 0.000760 0.000517 0.029952 0.000440
# 6 -0.002941 -0.001641 0.001586 0.001674 0.000440 0.025708
#
#
# Mechanical properties :
#
#
# Convention : Reuss Voigt Hill
#
# Bulk Modulus (GPa) = 38.01898 48.74404 43.38151
# Shear Modulus (GPa) = 34.30740 38.53739 36.42240
#
# Velocity S-wave (km/s) = 3.97071 4.20838 4.09127
# Velocity P-wave (km/s) = 6.20437 6.78344 6.50036
#
# Compressibility (1/GPa) = 0.02630265
#
# Stress axis : x y z
#
# Youngs Moduli (GPa) = 100.06160 112.13825 53.37355
#
# Poissons Ratio (x) = 0.07345 0.08092
# Poissons Ratio (y) = 0.06554 0.18688
# Poissons Ratio (z) = 0.15170 0.39263
#
# Static dielectric constant tensor:
#      x y z
#    x 2.055030 -0.045920 0.060860 
#    y -0.045920 1.841740 -0.047090 
#    z 0.060860 -0.047090 1.937560 
# 
# From -- ./inp_files/47018.got.cif
#   From: 2010.05.17/outbox.cif.g08.bks.cpg/sg2_24_cif.got.tgz:47018.got - 2010.06.03 11:33:40.
