data_PCOD9010780
_publ_section_title
;
Structure prediction by ZEFSAII (Michael W. Deem and Ramdas Pophale) SiO2 
 PCOD9010780
Probable space group: P -1
;
_chemical_formula_sum "Si O2"
_cell_formula_units_Z 16
_cell_length_a 27.995567
_cell_length_b 8.161432
_cell_length_c 5.563406
_cell_angle_alpha 62.505633
_cell_angle_beta 98.358127
_cell_angle_gamma 140.096931
_cell_volume 672.880205
_symmetry_space_group_name_H-M "P -1"
_symmetry_group_IT_number 2
_symmetry_cell_setting 'triclinic'
loop_
_space_group_symop_operation_xyz
x,y,z
-x,-y,-z
loop_
_atom_site_type_symbol
_atom_site_label
_atom_site_fract_x
_atom_site_fract_y
_atom_site_fract_z
Si Si1 0.071908 0.354717 0.231608
Si Si2 0.764202 0.334418 0.774327
Si Si3 0.393084 0.265079 0.730378
Si Si4 0.462587 0.145681 0.097877
Si Si5 0.320549 0.773250 0.612370
Si Si6 0.241907 0.285254 0.239394
Si Si7 0.400151 0.600660 0.179172
Si Si8 0.928392 0.418761 0.427167
O O1 0.154195 0.491257 0.177699
O O2 0.084899 0.511693 0.379658
O O3 0.056543 0.417947 0.922975
O O4 0.000000 0.000000 0.500000
O O5 0.752687 0.333576 0.485131
O O6 0.749608 0.498229 0.751703
O O7 0.688801 0.973402 0.018994
O O8 0.425838 0.551602 0.453604
O O9 0.362035 0.040695 0.643020
O O10 0.458071 0.338911 0.862043
O O11 0.394569 0.933980 0.393099
O O12 0.427708 0.893442 0.046065
O O13 0.553260 0.347395 0.047279
O O14 0.275651 0.456616 0.892663
O O15 0.304730 0.315849 0.321614
O O16 0.152528 0.943245 0.428417
O O17 0.000000 0.500000 0.500000
#
# Coordination Sequence:
#
# PCOD9010780 Si02
#       8
#     2   2   2   2   2   2   2   2
#     4  12  28  48  77 109 147 195 234 295 372 433
#     4  10  23  42  67  95 142 177 237 289 361 431
#     4  10  21  41  61  94 129 181 235 296 358 427
#     4  10  22  42  57  94 130 183 234 299 359 425
#     4  10  21  40  64  91 139 179 226 300 357 420
#     4  11  24  42  68  99 137 181 233 300 360 424
#     4  11  21  40  64  88 136 178 236 294 365 427
#     4  12  29  49  77 114 147 184 247 295 363 442
#
# _framework density 23.778379999999999
#
# number of rings (size 3 to 8) (size 9 to 14) (size 15 to 20)
#    0.000    1.250    3.750    2.625    8.750    2.000 
#    2.250    0.000    0.000    0.000    0.000    0.000 
#    0.000    0.000    0.000    0.000    0.000    0.000 
#
# Total GULP energy -89304.661148 kJ/mol
# GULP energy per Si atom -5581.541322 kJ/mol
# Density = 2.372426 g / cm^3
# Si number density = 23.778380 Si / 1000 Ang^3
#
#
#
# Elastic Constant Matrix: (Units=GPa)
#
#
# Indices 1 2 3 4 5 6 
#
# 1 124.0080 28.7915 40.6971 5.4705 7.7084 33.6467
# 2 28.7915 91.7591 39.6913 -12.5548 7.0572 30.2582
# 3 40.6971 39.6913 146.9197 -6.0133 21.7625 12.8861
# 4 5.4705 -12.5548 -6.0133 46.8635 3.9965 -5.4994
# 5 7.7084 7.0572 21.7625 3.9965 31.7926 -3.0977
# 6 33.6467 30.2582 12.8861 -5.4994 -3.0977 41.2534
#
#
#
# Elastic Compliance Matrix: (Units=1/GPa)
#
#
# Indices 1 2 3 4 5 6 
#
# 1 0.011510 0.000249 -0.002258 -0.002501 -0.001896 -0.009341
# 2 0.000249 0.016422 -0.002937 0.002951 -0.003155 -0.011174
# 3 -0.002258 -0.002937 0.008920 0.001160 -0.004956 0.000992
# 4 -0.002501 0.002951 0.001160 0.023144 -0.003525 0.002333
# 5 -0.001896 -0.003155 -0.004956 -0.003525 0.037202 0.007732
# 6 -0.009341 -0.011174 0.000992 0.002333 0.007732 0.040636
#
#
# Mechanical properties :
#
#
# Convention : Reuss Voigt Hill
#
# Bulk Modulus (GPa) = 37.09326 64.56073 50.82700
# Shear Modulus (GPa) = 31.90557 40.88235 36.39396
#
# Velocity S-wave (km/s) = 3.66702 4.15095 3.91647
# Velocity P-wave (km/s) = 5.79334 7.08405 6.47096
#
# Compressibility (1/GPa) = 0.02695907
#
# Stress axis : x y z
#
# Youngs Moduli (GPa) = 86.88353 60.89549 112.10944
#
# Poissons Ratio (x) = -0.01516 0.25311
# Poissons Ratio (y) = -0.02163 0.32929
# Poissons Ratio (z) = 0.19616 0.17886
#
# Static dielectric constant tensor:
#      x y z
#    x 1.952230 0.016110 -0.011100 
#    y 0.016110 1.981620 0.102980 
#    z -0.011100 0.102980 2.011400 
# 
# From -- ./inp_files/128153.got.cif
#   From: 2010.05.17/outbox.cif.g08.bks.cpg/sg2_65_cif.got.tgz:128153.got - 2010.06.03 11:33:40.
