data_PCOD9010540
_publ_section_title
;
Structure prediction by ZEFSAII (Michael W. Deem and Ramdas Pophale) SiO2 
 PCOD9010540
Probable space group: P -1
;
_chemical_formula_sum "Si O2"
_cell_formula_units_Z 14
_cell_length_a 6.647901
_cell_length_b 19.444366
_cell_length_c 7.360347
_cell_angle_alpha 64.710841
_cell_angle_beta 120.976422
_cell_angle_gamma 127.608565
_cell_volume 637.203675
_symmetry_space_group_name_H-M "P -1"
_symmetry_group_IT_number 2
_symmetry_cell_setting 'triclinic'
loop_
_space_group_symop_operation_xyz
x,y,z
-x,-y,-z
loop_
_atom_site_type_symbol
_atom_site_label
_atom_site_fract_x
_atom_site_fract_y
_atom_site_fract_z
Si Si1 0.842612 0.481162 0.261198
Si Si2 0.315402 0.826357 0.381520
Si Si3 0.201158 0.361740 0.091678
Si Si4 0.787499 0.772621 0.027969
Si Si5 0.629527 0.938146 0.087376
Si Si6 0.763354 0.936662 0.730599
Si Si7 0.200160 0.679113 0.767463
O O1 0.519720 0.421538 0.211626
O O2 0.906100 0.420467 0.229087
O O3 0.000000 0.500000 0.500000
O O4 0.896692 0.571628 0.095831
O O5 0.441641 0.849539 0.212498
O O6 0.523640 0.910146 0.505354
O O7 0.291851 0.740620 0.562402
O O8 0.010819 0.809246 0.247628
O O9 0.031392 0.313557 0.244216
O O10 0.161300 0.292998 0.995882
O O11 0.830913 0.857636 0.843768
O O12 0.465388 0.716945 0.976778
O O13 0.650949 0.932106 0.887055
O O14 0.941942 0.978255 0.253778
O O15 0.500000 0.000000 0.000000
#
# Coordination Sequence:
#
# PCOD9010540 Si02
#       7
#     2   2   2   2   2   2   2
#     4  10  21  40  63  94 125 167 214 253 312 375
#     4  11  23  41  65  93 127 168 212 257 317 376
#     4  10  22  40  65  88 134 163 204 270 302 369
#     4  10  22  41  59  94 126 162 212 260 305 376
#     4  11  23  45  66  91 129 164 210 272 311 374
#     4  10  24  44  63  94 126 165 216 257 322 372
#     4  10  23  40  60  97 127 169 212 254 320 371
#
# _framework density 21.970998000000002
#
# number of rings (size 3 to 8) (size 9 to 14) (size 15 to 20)
#    0.000    1.714    1.429    1.714    4.000    2.286 
#   10.286    0.000    0.000    0.000    0.000    0.000 
#    0.000    0.000    0.000    0.000    0.000    0.000 
#
# Total GULP energy -78199.488692 kJ/mol
# GULP energy per Si atom -5585.677764 kJ/mol
# Density = 2.192099 g / cm^3
# Si number density = 21.970998 Si / 1000 Ang^3
#
#
#
# Elastic Constant Matrix: (Units=GPa)
#
#
# Indices 1 2 3 4 5 6 
#
# 1 57.4954 18.8669 27.2296 -3.2538 -15.5354 13.1447
# 2 18.8669 71.9027 20.8897 -2.5956 -1.0835 7.4054
# 3 27.2296 20.8897 94.6213 13.3070 20.0023 17.0352
# 4 -3.2538 -2.5956 13.3070 36.4173 13.9519 11.8005
# 5 -15.5354 -1.0835 20.0023 13.9519 30.4846 -1.3225
# 6 13.1447 7.4054 17.0352 11.8005 -1.3225 19.4436
#
#
#
# Elastic Compliance Matrix: (Units=1/GPa)
#
#
# Indices 1 2 3 4 5 6 
#
# 1 0.032992 -0.003780 -0.012187 0.000965 0.023837 -0.009152
# 2 -0.003780 0.015948 -0.001718 0.003641 -0.002088 -0.004366
# 3 -0.012187 -0.001718 0.021114 0.004176 -0.022630 -0.013679
# 4 0.000965 0.003641 0.004176 0.047946 -0.025647 -0.036541
# 5 0.023837 -0.002088 -0.022630 -0.025647 0.072548 0.025008
# 6 -0.009152 -0.004366 -0.013679 -0.036541 0.025008 0.095143
#
#
# Mechanical properties :
#
#
# Convention : Reuss Voigt Hill
#
# Bulk Modulus (GPa) = 28.83051 39.77687 34.30369
# Shear Modulus (GPa) = 15.03206 27.73797 21.38501
#
# Velocity S-wave (km/s) = 2.61852 3.55700 3.12321
# Velocity P-wave (km/s) = 4.72152 5.91719 5.35285
#
# Compressibility (1/GPa) = 0.03468547
#
# Stress axis : x y z
#
# Youngs Moduli (GPa) = 30.31007 62.70302 47.36187
#
# Poissons Ratio (x) = 0.23701 0.57719
# Poissons Ratio (y) = 0.11457 0.08136
# Poissons Ratio (z) = 0.36938 0.10772
#
# Static dielectric constant tensor:
#      x y z
#    x 1.822210 0.005950 0.015330 
#    y 0.005950 1.822310 0.007530 
#    z 0.015330 0.007530 1.812970 
# 
# From -- ./inp_files/10890.got.cif
#   From: 2010.05.17/outbox.cif.g08.bks.cpg/sg2_6_cif.got.tgz:10890.got - 2010.06.03 11:33:40.
