data_PCOD9010231
_publ_section_title
;
Structure prediction by ZEFSAII (Michael W. Deem and Ramdas Pophale) SiO2 
 PCOD9010231
Probable space group: P -1
;
_chemical_formula_sum "Si O2"
_cell_formula_units_Z 16
_cell_length_a 8.344341
_cell_length_b 8.432161
_cell_length_c 18.931559
_cell_angle_alpha 127.141843
_cell_angle_beta 59.716052
_cell_angle_gamma 77.100553
_cell_volume 588.741935
_symmetry_space_group_name_H-M "P -1"
_symmetry_group_IT_number 2
_symmetry_cell_setting 'triclinic'
loop_
_space_group_symop_operation_xyz
x,y,z
-x,-y,-z
loop_
_atom_site_type_symbol
_atom_site_label
_atom_site_fract_x
_atom_site_fract_y
_atom_site_fract_z
Si Si1 0.380436 0.409137 0.177080
Si Si2 0.288173 0.838685 0.216877
Si Si3 0.454197 0.399012 0.416406
Si Si4 0.067449 0.832569 0.139864
Si Si5 0.037594 0.482277 0.902459
Si Si6 0.569014 0.329924 0.633605
Si Si7 0.911094 0.739557 0.859407
Si Si8 0.682590 0.930404 0.603677
O O1 0.231866 0.691531 0.236164
O O2 0.437281 0.483014 0.257035
O O3 0.206939 0.342826 0.186082
O O4 0.703935 0.098590 0.988688
O O5 0.133391 0.963789 0.210000
O O6 0.221362 0.083848 0.343829
O O7 0.629759 0.522814 0.040586
O O8 0.500000 0.500000 0.500000
O O9 0.310062 0.652650 0.456867
O O10 0.327391 0.297453 0.448404
O O11 0.778029 0.091023 0.227746
O O12 0.943687 0.755184 0.196147
O O13 0.838761 0.755343 0.963657
O O14 0.360932 0.293943 0.773057
O O15 0.000000 0.500000 0.000000
O O16 0.772911 0.983995 0.528956
O O17 0.255856 0.497628 0.719822
#
# Coordination Sequence:
#
# PCOD9010231 Si02
#       8
#     2   2   2   2   2   2   2   2
#     4  10  20  32  54  88 130 164 202 246 316 387
#     4  10  18  35  56  94 127 156 199 250 324 379
#     4  11  25  44  64  89 119 165 219 260 306 370
#     4  10  20  32  58  87 126 159 194 257 307 370
#     4  10  17  29  50  85 122 166 202 234 304 371
#     4  10  22  40  62  86 121 162 213 261 309 368
#     4  10  20  33  53  88 131 169 198 251 314 383
#     4   9  21  37  64  88 120 162 200 257 315 370
#
# _framework density 27.176594999999999
#
# number of rings (size 3 to 8) (size 9 to 14) (size 15 to 20)
#    0.000    2.000    2.500    1.125    3.500    0.500 
#    4.500    0.625    0.000    1.500    0.000    0.000 
#    0.000    0.000    0.000    0.000    0.000    0.000 
#
# Total GULP energy -89080.691286 kJ/mol
# GULP energy per Si atom -5567.543205 kJ/mol
# Density = 2.711474 g / cm^3
# Si number density = 27.176595 Si / 1000 Ang^3
#
#
#
# Elastic Constant Matrix: (Units=GPa)
#
#
# Indices 1 2 3 4 5 6 
#
# 1 155.7998 17.7215 55.6398 9.4096 24.1824 3.3956
# 2 17.7215 128.3704 30.5672 7.4290 25.9065 -3.4626
# 3 55.6398 30.5672 70.3651 10.1259 14.2592 -2.7868
# 4 9.4096 7.4290 10.1259 43.3927 -8.2986 5.7993
# 5 24.1824 25.9065 14.2592 -8.2986 65.0043 10.2702
# 6 3.3956 -3.4626 -2.7868 5.7993 10.2702 37.4626
#
#
#
# Elastic Compliance Matrix: (Units=1/GPa)
#
#
# Indices 1 2 3 4 5 6 
#
# 1 0.009298 0.000923 -0.007189 -0.000860 -0.002275 -0.000536
# 2 0.000923 0.009488 -0.003716 -0.001945 -0.003854 0.001875
# 3 -0.007189 -0.003716 0.022536 -0.003808 -0.001757 0.003056
# 4 -0.000860 -0.001945 -0.003808 0.026487 0.006293 -0.006211
# 5 -0.002275 -0.003854 -0.001757 0.006293 0.020020 -0.006743
# 6 -0.000536 0.001875 0.003056 -0.006211 -0.006743 0.029952
#
#
# Mechanical properties :
#
#
# Convention : Reuss Voigt Hill
#
# Bulk Modulus (GPa) = 46.82523 62.48803 54.65663
# Shear Modulus (GPa) = 34.51476 45.87904 40.19690
#
# Velocity S-wave (km/s) = 3.56760 4.11321 3.85008
# Velocity P-wave (km/s) = 5.85130 6.75287 6.31819
#
# Compressibility (1/GPa) = 0.02135601
#
# Stress axis : x y z
#
# Youngs Moduli (GPa) = 107.55359 105.39203 44.37388
#
# Poissons Ratio (x) = -0.09725 0.31902
# Poissons Ratio (y) = -0.09924 0.16491
# Poissons Ratio (z) = 0.77323 0.39168
#
# Static dielectric constant tensor:
#      x y z
#    x 2.275410 0.037830 -0.136170 
#    y 0.037830 2.255840 -0.106290 
#    z -0.136170 -0.106290 2.290230 
# 
# From -- ./inp_files/557570.got.cif
#   From: 2010.05.17/outbox.cif.g08.bks.cpg/sg2_279_cif.got.tgz:557570.got - 2010.06.03 11:33:40.
