data_PCOD9010366
_publ_section_title
;
Structure prediction by ZEFSAII (Michael W. Deem and Ramdas Pophale) SiO2 
 PCOD9010366
Probable space group: P -1
;
_chemical_formula_sum "Si O2"
_cell_formula_units_Z 14
_cell_length_a 18.913434
_cell_length_b 5.701453
_cell_length_c 9.802990
_cell_angle_alpha 51.151671
_cell_angle_beta 135.486870
_cell_angle_gamma 103.317076
_cell_volume 529.655939
_symmetry_space_group_name_H-M "P -1"
_symmetry_group_IT_number 2
_symmetry_cell_setting 'triclinic'
loop_
_space_group_symop_operation_xyz
x,y,z
-x,-y,-z
loop_
_atom_site_type_symbol
_atom_site_label
_atom_site_fract_x
_atom_site_fract_y
_atom_site_fract_z
Si Si1 0.852523 0.011707 0.409204
Si Si2 0.547533 0.871564 0.461962
Si Si3 0.894809 0.517746 0.434518
Si Si4 0.586979 0.468573 0.276923
Si Si5 0.809386 0.509921 0.937957
Si Si6 0.383861 0.944770 0.989070
Si Si7 0.788121 0.067136 0.874966
O O1 0.881856 0.174918 0.521960
O O2 0.902270 0.644358 0.550720
O O3 0.871951 0.232067 0.235048
O O4 0.723564 0.097632 0.192657
O O5 0.561920 0.172344 0.290126
O O6 0.500000 0.000000 0.500000
O O7 0.676170 0.620663 0.735358
O O8 0.450360 0.818805 0.266804
O O9 0.000000 0.500000 0.500000
O O10 0.798342 0.818529 0.107693
O O11 0.475874 0.730546 0.088344
O O12 0.667168 0.298274 0.575706
O O13 0.643502 0.666969 0.198387
O O14 0.838393 0.321607 0.903375
O O15 0.832136 0.825894 0.894414
#
# Coordination Sequence:
#
# PCOD9010366 Si02
#       7
#     2   2   2   2   2   2   2
#     4  10  22  35  58  90 117 154 196 247 306 358
#     4  11  22  32  55  81 120 166 206 247 279 341
#     4  10  21  40  63  88 116 146 197 265 317 355
#     4  10  22  38  53  82 127 171 202 231 294 354
#     4   9  18  32  50  80 112 144 192 234 287 329
#     4  11  23  36  55  83 128 168 201 240 287 366
#     4   9  18  35  56  82 110 151 193 241 284 353
#
# _framework density 26.432251999999998
#
# number of rings (size 3 to 8) (size 9 to 14) (size 15 to 20)
#    0.000    2.000    1.429    1.714   12.000    1.143 
#    0.000    0.000    0.000    1.714    0.000    0.000 
#    0.000    0.000    0.000    0.000    0.000    0.000 
#
# Total GULP energy -78124.518296 kJ/mol
# GULP energy per Si atom -5580.322735 kJ/mol
# Density = 2.637209 g / cm^3
# Si number density = 26.432252 Si / 1000 Ang^3
#
#
#
# Elastic Constant Matrix: (Units=GPa)
#
#
# Indices 1 2 3 4 5 6 
#
# 1 36.9898 29.4388 35.6785 0.7717 -0.9000 -8.0724
# 2 29.4388 214.5773 12.8580 -0.7729 3.7645 -28.7532
# 3 35.6785 12.8580 73.5841 -1.6917 20.6570 4.1865
# 4 0.7717 -0.7729 -1.6917 28.7034 -1.3537 -1.7965
# 5 -0.9000 3.7645 20.6570 -1.3537 31.2107 0.8281
# 6 -8.0724 -28.7532 4.1865 -1.7965 0.8281 43.5783
#
#
#
# Elastic Compliance Matrix: (Units=1/GPa)
#
#
# Indices 1 2 3 4 5 6 
#
# 1 0.089576 -0.007618 -0.053921 -0.002975 0.038639 0.015890
# 2 -0.007618 0.005851 0.003473 0.000551 -0.003259 0.002201
# 3 -0.053921 0.003473 0.049476 0.002108 -0.034318 -0.011711
# 4 -0.002975 0.000551 0.002108 0.035122 -0.000052 0.001059
# 5 0.038639 -0.003259 -0.034318 -0.000052 0.056067 0.007237
# 6 0.015890 0.002201 -0.011711 0.001059 0.007237 0.028374
#
#
# Mechanical properties :
#
#
# Convention : Reuss Voigt Hill
#
# Bulk Modulus (GPa) = 34.75446 53.45578 44.10512
# Shear Modulus (GPa) = 12.81434 37.17687 24.99560
#
# Velocity S-wave (km/s) = 2.20420 3.75440 3.07847
# Velocity P-wave (km/s) = 4.43340 6.24993 5.41833
#
# Compressibility (1/GPa) = 0.02877329
#
# Stress axis : x y z
#
# Youngs Moduli (GPa) = 11.16365 170.90140 20.21177
#
# Poissons Ratio (x) = 1.30186 1.08984
# Poissons Ratio (y) = 0.08504 -0.07020
# Poissons Ratio (z) = 0.60196 -0.59360
#
# Static dielectric constant tensor:
#      x y z
#    x 2.087440 -0.001870 -0.019880 
#    y -0.001870 2.214720 -0.022250 
#    z -0.019880 -0.022250 2.121470 
# 
# From -- ./inp_files/34094.got.cif
#   From: 2010.05.17/outbox.cif.g08.bks.cpg/sg2_18_cif.got.tgz:34094.got - 2010.06.03 11:33:40.
