data_PCOD9010256
_publ_section_title
;
Structure prediction by ZEFSAII (Michael W. Deem and Ramdas Pophale) SiO2 
 PCOD9010256
Probable space group: P -1
;
_chemical_formula_sum "Si O2"
_cell_formula_units_Z 14
_cell_length_a 5.180670
_cell_length_b 8.977435
_cell_length_c 14.717699
_cell_angle_alpha 55.996781
_cell_angle_beta 98.172319
_cell_angle_gamma 99.276147
_cell_volume 558.907561
_symmetry_space_group_name_H-M "P -1"
_symmetry_group_IT_number 2
_symmetry_cell_setting 'triclinic'
loop_
_space_group_symop_operation_xyz
x,y,z
-x,-y,-z
loop_
_atom_site_type_symbol
_atom_site_label
_atom_site_fract_x
_atom_site_fract_y
_atom_site_fract_z
Si Si1 0.272002 0.770428 0.902574
Si Si2 0.953970 0.026236 0.690932
Si Si3 0.582280 0.404429 0.204272
Si Si4 0.990849 0.722321 0.068426
Si Si5 0.105700 0.258117 0.348534
Si Si6 0.713663 0.047457 0.855873
Si Si7 0.224816 0.379618 0.518149
O O1 0.451481 0.678371 0.870913
O O2 0.062033 0.851196 0.800360
O O3 0.428036 0.948967 0.893050
O O4 0.149937 0.644975 0.019365
O O5 0.173315 0.193487 0.635678
O O6 0.750884 0.078000 0.739510
O O7 0.860142 0.946370 0.615599
O O8 0.316882 0.378952 0.255833
O O9 0.737522 0.600252 0.131239
O O10 0.804962 0.300233 0.303307
O O11 0.184946 0.778042 0.141697
O O12 0.891974 0.897187 0.954955
O O13 0.180893 0.311904 0.436077
O O14 0.500000 0.500000 0.500000
O O15 0.000000 0.500000 0.500000
#
# Coordination Sequence:
#
# PCOD9010256 Si02
#       7
#     2   2   2   2   2   2   2
#     4  10  21  41  64  98 129 185 227 267 333 399
#     4  10  24  45  68  95 136 178 220 279 331 412
#     4  11  24  42  69 100 136 179 224 280 322 395
#     4  10  23  36  61  97 137 178 223 279 325 391
#     4  11  25  47  69 101 135 180 225 267 346 400
#     4  10  21  40  62  93 133 178 229 260 345 390
#     4  12  29  47  73 107 133 170 224 283 343 400
#
# _framework density 25.048864999999999
#
# number of rings (size 3 to 8) (size 9 to 14) (size 15 to 20)
#    0.000    1.429    1.429    2.143    8.000    0.571 
#    0.000    3.571    0.000    0.000    0.000    0.000 
#    0.000    0.000    0.000    0.000    0.000    0.000 
#
# Total GULP energy -78287.129546 kJ/mol
# GULP energy per Si atom -5591.937825 kJ/mol
# Density = 2.499185 g / cm^3
# Si number density = 25.048865 Si / 1000 Ang^3
#
#
#
# Elastic Constant Matrix: (Units=GPa)
#
#
# Indices 1 2 3 4 5 6 
#
# 1 101.1811 34.0395 28.0344 -1.5697 -22.9022 20.1454
# 2 34.0395 152.0590 36.7794 7.1260 -14.6277 26.8016
# 3 28.0344 36.7794 74.4330 -1.6199 -21.1748 -1.9137
# 4 -1.5697 7.1260 -1.6199 36.1838 8.7413 -7.3303
# 5 -22.9022 -14.6277 -21.1748 8.7413 32.3285 -4.5897
# 6 20.1454 26.8016 -1.9137 -7.3303 -4.5897 41.9033
#
#
#
# Elastic Compliance Matrix: (Units=1/GPa)
#
#
# Indices 1 2 3 4 5 6 
#
# 1 0.013708 -0.000434 -0.003083 -0.002453 0.007295 -0.006083
# 2 -0.000434 0.009082 -0.004257 -0.003533 0.001075 -0.006295
# 3 -0.003083 -0.004257 0.019555 0.000564 0.009430 0.006230
# 4 -0.002453 -0.003533 0.000564 0.032428 -0.010602 0.007976
# 5 0.007295 0.001075 0.009430 -0.010602 0.045540 -0.000631
# 6 -0.006083 -0.006295 0.006230 0.007976 -0.000631 0.032426
#
#
# Mechanical properties :
#
#
# Convention : Reuss Voigt Hill
#
# Bulk Modulus (GPa) = 37.31882 58.37550 47.84716
# Shear Modulus (GPa) = 28.21376 37.33778 32.77577
#
# Velocity S-wave (km/s) = 3.35975 3.86501 3.62121
# Velocity P-wave (km/s) = 5.47552 6.57822 6.05204
#
# Compressibility (1/GPa) = 0.02679613
#
# Stress axis : x y z
#
# Youngs Moduli (GPa) = 72.95120 110.11184 51.13895
#
# Poissons Ratio (x) = 0.04778 0.15766
# Poissons Ratio (y) = 0.03166 0.21770
# Poissons Ratio (z) = 0.22491 0.46874
#
# Static dielectric constant tensor:
#      x y z
#    x 1.995900 -0.054800 0.038250 
#    y -0.054800 2.034580 0.012820 
#    z 0.038250 0.012820 2.012160 
# 
# From -- ./inp_files/27861.got.cif
#   From: 2010.05.17/outbox.cif.g08.bks.cpg/sg2_14_cif.got.tgz:27861.got - 2010.06.03 11:33:40.
