data_PCOD9010141
_publ_section_title
;
Structure prediction by ZEFSAII (Michael W. Deem and Ramdas Pophale) SiO2 
 PCOD9010141
Probable space group: P -1
;
_chemical_formula_sum "Si O2"
_cell_formula_units_Z 12
_cell_length_a 4.828739
_cell_length_b 16.925229
_cell_length_c 5.580848
_cell_angle_alpha 102.403468
_cell_angle_beta 84.348186
_cell_angle_gamma 98.454990
_cell_volume 439.563620
_symmetry_space_group_name_H-M "P -1"
_symmetry_group_IT_number 2
_symmetry_cell_setting 'triclinic'
loop_
_space_group_symop_operation_xyz
x,y,z
-x,-y,-z
loop_
_atom_site_type_symbol
_atom_site_label
_atom_site_fract_x
_atom_site_fract_y
_atom_site_fract_z
Si Si1 0.354648 0.779085 0.296389
Si Si2 0.300476 0.066664 0.122223
Si Si3 0.915421 0.892522 0.333059
Si Si4 0.435217 0.744929 0.768950
Si Si5 0.205897 0.391453 0.325282
Si Si6 0.754178 0.479493 0.196007
O O1 0.686643 0.810481 0.290545
O O2 0.287949 0.730741 0.514896
O O3 0.205484 0.860606 0.352156
O O4 0.277880 0.730900 0.027188
O O5 0.178481 0.058229 0.397121
O O6 0.476219 0.157140 0.173515
O O7 0.099518 0.072226 0.911093
O O8 0.500000 0.000000 0.000000
O O9 0.708341 0.698449 0.723623
O O10 0.442204 0.434905 0.145284
O O11 0.279605 0.439780 0.597529
O O12 0.900708 0.415057 0.306552
O O13 0.000000 0.500000 0.000000
#
# Coordination Sequence:
#
# PCOD9010141 Si02
#       6
#     2   2   2   2   2   2
#     4  10  22  40  63  90 130 164 214 271 317 387
#     4  10  21  41  66  94 132 174 219 272 324 386
#     4  10  21  40  62  88 124 169 217 266 325 378
#     4  10  23  42  63  99 131 172 223 267 331 387
#     4  10  23  40  65  98 129 172 217 276 324 407
#     4  10  22  43  67  94 132 168 219 266 343 394
#
# _framework density 27.299802
#
# number of rings (size 3 to 8) (size 9 to 14) (size 15 to 20)
#    0.000    2.000    0.000    2.000    2.333    5.333 
#    3.000   20.000    0.000    0.000    0.000    0.000 
#    0.000    0.000    0.000    0.000    0.000    0.000 
#
# Total GULP energy -67189.214202 kJ/mol
# GULP energy per Si atom -5599.101183 kJ/mol
# Density = 2.723767 g / cm^3
# Si number density = 27.299802 Si / 1000 Ang^3
#
#
#
# Elastic Constant Matrix: (Units=GPa)
#
#
# Indices 1 2 3 4 5 6 
#
# 1 100.4894 18.6073 22.7973 -2.4241 -11.2870 -25.3848
# 2 18.6073 142.6098 66.3862 20.8676 -10.7964 -29.9296
# 3 22.7973 66.3862 234.3136 -21.7220 -11.4488 -15.0892
# 4 -2.4241 20.8676 -21.7220 61.7247 -8.2599 -6.6669
# 5 -11.2870 -10.7964 -11.4488 -8.2599 47.8322 0.2399
# 6 -25.3848 -29.9296 -15.0892 -6.6669 0.2399 53.1037
#
#
#
# Elastic Compliance Matrix: (Units=1/GPa)
#
#
# Indices 1 2 3 4 5 6 
#
# 1 0.011856 -0.000113 -0.000498 0.001317 0.002852 0.005614
# 2 -0.000113 0.009832 -0.002809 -0.003748 0.000852 0.004215
# 3 -0.000498 -0.002809 0.005449 0.003002 0.001070 0.000099
# 4 0.001317 -0.003748 0.003002 0.019235 0.003496 0.001769
# 5 0.002852 0.000852 0.001070 0.003496 0.022619 0.002484
# 6 0.005614 0.004215 0.000099 0.001769 0.002484 0.024129
#
#
# Mechanical properties :
#
#
# Convention : Reuss Voigt Hill
#
# Bulk Modulus (GPa) = 49.27295 76.99936 63.13616
# Shear Modulus (GPa) = 46.84878 57.17358 52.01118
#
# Velocity S-wave (km/s) = 4.14706 4.58130 4.36958
# Velocity P-wave (km/s) = 6.40459 7.50005 6.97386
#
# Compressibility (1/GPa) = 0.02029511
#
# Stress axis : x y z
#
# Youngs Moduli (GPa) = 84.34805 101.70934 183.51786
#
# Poissons Ratio (x) = 0.01153 0.09147
# Poissons Ratio (y) = 0.00956 0.51550
# Poissons Ratio (z) = 0.04204 0.28570
#
# Static dielectric constant tensor:
#      x y z
#    x 2.159860 0.139900 0.031980 
#    y 0.139900 2.190980 -0.099350 
#    z 0.031980 -0.099350 2.173370 
# 
# From -- ./inp_files/5278.got.cif
#   From: 2010.05.17/outbox.cif.g08.bks.cpg/sg2_3_cif.got.tgz:5278.got - 2010.06.03 11:33:40.
