data_PCOD9010009
_publ_section_title
;
Structure prediction by ZEFSAII (Michael W. Deem and Ramdas Pophale) SiO2 
 PCOD9010009
Probable space group: P -1
;
_chemical_formula_sum "Si O2"
_cell_formula_units_Z 16
_cell_length_a 11.694767
_cell_length_b 12.416670
_cell_length_c 12.690161
_cell_angle_alpha 142.072616
_cell_angle_beta 57.129471
_cell_angle_gamma 135.324276
_cell_volume 795.663641
_symmetry_space_group_name_H-M "P -1"
_symmetry_group_IT_number 2
_symmetry_cell_setting 'triclinic'
loop_
_space_group_symop_operation_xyz
x,y,z
-x,-y,-z
loop_
_atom_site_type_symbol
_atom_site_label
_atom_site_fract_x
_atom_site_fract_y
_atom_site_fract_z
Si Si1 0.852648 0.866568 0.108809
Si Si2 0.705167 0.835232 0.372438
Si Si3 0.457468 0.095264 0.996741
Si Si4 0.268653 0.643048 0.511459
Si Si5 0.493824 0.482185 0.613986
Si Si6 0.889523 0.188984 0.165649
Si Si7 0.369453 0.551948 0.194145
Si Si8 0.579273 0.098604 0.716432
O O1 0.837390 0.892704 0.260733
O O2 0.894978 0.063668 0.168331
O O3 0.683964 0.673117 0.995099
O O4 0.975695 0.794895 0.967117
O O5 0.676264 0.703616 0.391795
O O6 0.536759 0.673511 0.269110
O O7 0.699127 0.031657 0.564129
O O8 0.470411 0.305226 0.188179
O O9 0.575668 0.130050 0.866861
O O10 0.500000 0.000000 0.000000
O O11 0.278199 0.944134 0.920326
O O12 0.370244 0.568957 0.467011
O O13 0.123771 0.625127 0.636215
O O14 0.237653 0.530346 0.328380
O O15 0.399559 0.893691 0.618753
O O16 0.500000 0.500000 0.500000
O O17 0.383487 0.699064 0.207191
#
# Coordination Sequence:
#
# PCOD9010009 Si02
#       8
#     2   2   2   2   2   2   2   2
#     4  11  21  32  52  78 112 144 171 215 257 314
#     4  10  18  31  51  77 107 136 174 215 260 306
#     4  11  20  35  58  78 101 134 176 219 259 310
#     4   9  18  32  50  74 107 138 172 216 258 311
#     4  10  19  33  56  82 101 128 173 223 264 303
#     4  10  21  36  50  76 111 144 176 207 262 310
#     4  10  17  29  50  77 102 134 176 217 262 303
#     4   9  17  30  51  77 102 130 171 221 263 302
#
# _framework density 20.109000999999999
#
# number of rings (size 3 to 8) (size 9 to 14) (size 15 to 20)
#    0.000    2.250    0.000    8.625    0.000    0.500 
#    0.000    1.250    0.000    9.750    0.000    0.000 
#    0.000    0.000    0.000    0.000    0.000    0.000 
#
# Total GULP energy -89227.187572 kJ/mol
# GULP energy per Si atom -5576.699223 kJ/mol
# Density = 2.006323 g / cm^3
# Si number density = 20.109001 Si / 1000 Ang^3
#
#
#
# Elastic Constant Matrix: (Units=GPa)
#
#
# Indices 1 2 3 4 5 6 
#
# 1 51.7711 27.2265 19.1458 -24.3586 -12.8624 -6.9744
# 2 27.2265 74.9688 31.2206 -35.9414 -2.6735 -21.0212
# 3 19.1458 31.2206 131.2771 -45.2758 -15.0668 3.3350
# 4 -24.3586 -35.9414 -45.2758 50.1579 1.2829 2.9865
# 5 -12.8624 -2.6735 -15.0668 1.2829 33.0386 -11.4302
# 6 -6.9744 -21.0212 3.3350 2.9865 -11.4302 23.8908
#
#
#
# Elastic Compliance Matrix: (Units=1/GPa)
#
#
# Indices 1 2 3 4 5 6 
#
# 1 0.033475 0.000713 0.002944 0.017900 0.019676 0.017165
# 2 0.000713 0.033541 0.000377 0.022370 0.013891 0.033518
# 3 0.002944 0.000377 0.012099 0.012387 0.006598 0.001110
# 4 0.017900 0.022370 0.012387 0.053691 0.021618 0.026811
# 5 0.019676 0.013891 0.006598 0.021618 0.055344 0.040822
# 6 0.017165 0.033518 0.001110 0.026811 0.040822 0.092384
#
#
# Mechanical properties :
#
#
# Convention : Reuss Voigt Hill
#
# Bulk Modulus (GPa) = 11.47006 45.91145 28.69075
# Shear Modulus (GPa) = 16.58221 33.44573 25.01397
#
# Velocity S-wave (km/s) = 2.87473 4.08269 3.53075
# Velocity P-wave (km/s) = 4.09085 6.71605 5.56059
#
# Compressibility (1/GPa) = 0.08718353
#
# Stress axis : x y z
#
# Youngs Moduli (GPa) = 29.87331 29.81392 82.64809
#
# Poissons Ratio (x) = -0.02126 -0.24330
# Poissons Ratio (y) = -0.02130 -0.03117
# Poissons Ratio (z) = -0.08794 -0.01124
#
# Static dielectric constant tensor:
#      x y z
#    x 1.722440 0.049170 -0.012670 
#    y 0.049170 1.784350 -0.031560 
#    z -0.012670 -0.031560 1.753510 
# 
# From -- ./inp_files/262119.got.cif
#   From: 2010.05.17/outbox.cif.g08.bks.cpg/sg2_132_cif.got.tgz:262119.got - 2010.06.03 11:33:40.
