data_PCOD9010491
_publ_section_title
;
Structure prediction by ZEFSAII (Michael W. Deem and Ramdas Pophale) SiO2 
 PCOD9010491
Probable space group: P -1
;
_chemical_formula_sum "Si O2"
_cell_formula_units_Z 16
_cell_length_a 11.156619
_cell_length_b 11.281669
_cell_length_c 10.872597
_cell_angle_alpha 42.605070
_cell_angle_beta 86.755331
_cell_angle_gamma 117.785160
_cell_volume 610.323229
_symmetry_space_group_name_H-M "P -1"
_symmetry_group_IT_number 2
_symmetry_cell_setting 'triclinic'
loop_
_space_group_symop_operation_xyz
x,y,z
-x,-y,-z
loop_
_atom_site_type_symbol
_atom_site_label
_atom_site_fract_x
_atom_site_fract_y
_atom_site_fract_z
Si Si1 0.425246 0.211106 0.105849
Si Si2 0.309822 0.535826 0.685683
Si Si3 0.259127 0.799830 0.636032
Si Si4 0.881796 0.868269 0.815756
Si Si5 0.907005 0.243034 0.083774
Si Si6 0.216224 0.703582 0.340859
Si Si7 0.782087 0.547439 0.683607
Si Si8 0.638084 0.717729 0.422499
O O1 0.323830 0.286227 0.076253
O O2 0.370464 0.049363 0.354789
O O3 0.321669 0.991827 0.165966
O O4 0.638577 0.421932 0.898304
O O5 0.332415 0.689712 0.682579
O O6 0.264949 0.606833 0.515171
O O7 0.499369 0.647178 0.580106
O O8 0.149286 0.223949 0.967978
O O9 0.223978 0.809941 0.770079
O O10 0.049252 0.539304 0.801771
O O11 0.985638 0.801143 0.819937
O O12 0.006110 0.165264 0.533003
O O13 0.786644 0.025863 0.150707
O O14 0.261995 0.672702 0.226935
O O15 0.000000 0.500000 0.500000
O O16 0.737081 0.658615 0.510916
O O17 0.500000 0.500000 0.500000
#
# Coordination Sequence:
#
# PCOD9010491 Si02
#       8
#     2   2   2   2   2   2   2   2
#     4  11  22  40  62  92 132 169 221 278 327 392
#     4  10  21  40  65  93 128 172 221 273 325 390
#     4   9  21  44  64  94 128 173 228 272 324 395
#     4  10  21  40  63  92 127 168 223 270 327 392
#     4   9  21  43  69  91 130 176 221 274 330 389
#     4  11  22  40  60  90 132 178 216 272 331 391
#     4  11  22  40  59  93 135 172 215 271 331 396
#     4  11  21  39  66 101 129 170 219 272 328 396
#
# _framework density 26.215616000000001
#
# number of rings (size 3 to 8) (size 9 to 14) (size 15 to 20)
#    0.000    1.750    3.750    0.375    0.000    1.500 
#   18.000    2.500    0.000    0.000    0.000    0.000 
#    0.000    0.000    0.000    0.000    0.000    0.000 
#
# Total GULP energy -89215.476116 kJ/mol
# GULP energy per Si atom -5575.967257 kJ/mol
# Density = 2.615595 g / cm^3
# Si number density = 26.215616 Si / 1000 Ang^3
#
#
#
# Elastic Constant Matrix: (Units=GPa)
#
#
# Indices 1 2 3 4 5 6 
#
# 1 89.2938 32.7389 17.2056 -2.6005 -8.4699 -26.0320
# 2 32.7389 55.2249 8.2794 -4.9061 3.9055 -10.1407
# 3 17.2056 8.2794 106.0031 -14.2063 1.6227 10.1687
# 4 -2.6005 -4.9061 -14.2063 19.2254 -5.3249 -10.5343
# 5 -8.4699 3.9055 1.6227 -5.3249 44.8380 0.6472
# 6 -26.0320 -10.1407 10.1687 -10.5343 0.6472 42.8149
#
#
#
# Elastic Compliance Matrix: (Units=1/GPa)
#
#
# Indices 1 2 3 4 5 6 
#
# 1 0.018831 -0.008449 -0.002770 0.006022 0.004942 0.011513
# 2 -0.008449 0.024144 0.000053 0.005241 -0.003106 0.001905
# 3 -0.002770 0.000053 0.010976 0.006201 -0.000149 -0.002750
# 4 0.006022 0.005241 0.006201 0.072808 0.008797 0.021211
# 5 0.004942 -0.003106 -0.000149 0.008797 0.024498 0.004099
# 6 0.011513 0.001905 -0.002750 0.021211 0.004099 0.036618
#
#
# Mechanical properties :
#
#
# Convention : Reuss Voigt Hill
#
# Bulk Modulus (GPa) = 31.62585 40.77438 36.20012
# Shear Modulus (GPa) = 22.65054 34.19552 28.42303
#
# Velocity S-wave (km/s) = 2.94259 3.61556 3.29629
# Velocity P-wave (km/s) = 4.86159 5.74604 5.32222
#
# Compressibility (1/GPa) = 0.03161970
#
# Stress axis : x y z
#
# Youngs Moduli (GPa) = 53.10404 41.41868 91.10521
#
# Poissons Ratio (x) = 0.34994 0.25233
# Poissons Ratio (y) = 0.44866 -0.00481
# Poissons Ratio (z) = 0.14708 -0.00219
#
# Static dielectric constant tensor:
#      x y z
#    x 2.211840 0.177630 -0.192690 
#    y 0.177630 2.452490 -0.371150 
#    z -0.192690 -0.371150 2.327590 
# 
# From -- ./inp_files/427410.got.cif
#   From: 2010.05.17/outbox.cif.g08.bks.cpg/sg2_214_cif.got.tgz:427410.got - 2010.06.03 11:33:40.
