data_PCOD9010525
_publ_section_title
;
Structure prediction by ZEFSAII (Michael W. Deem and Ramdas Pophale) SiO2 
 PCOD9010525
Probable space group: P -1
;
_chemical_formula_sum "Si O2"
_cell_formula_units_Z 14
_cell_length_a 5.228191
_cell_length_b 20.336384
_cell_length_c 6.310096
_cell_angle_alpha 117.536261
_cell_angle_beta 77.455876
_cell_angle_gamma 98.315445
_cell_volume 579.944956
_symmetry_space_group_name_H-M "P -1"
_symmetry_group_IT_number 2
_symmetry_cell_setting 'triclinic'
loop_
_space_group_symop_operation_xyz
x,y,z
-x,-y,-z
loop_
_atom_site_type_symbol
_atom_site_label
_atom_site_fract_x
_atom_site_fract_y
_atom_site_fract_z
Si Si1 0.581878 0.362494 0.810710
Si Si2 0.213672 0.257648 0.970357
Si Si3 0.739948 0.484269 0.280265
Si Si4 0.203765 0.009060 0.284700
Si Si5 0.240815 0.912203 0.755324
Si Si6 0.247740 0.780430 0.259745
Si Si7 0.050380 0.618458 0.565387
O O1 0.319342 0.318159 0.865234
O O2 0.781212 0.305376 0.793076
O O3 0.660287 0.365756 0.557856
O O4 0.624947 0.441109 0.034124
O O5 0.475156 0.215054 0.907627
O O6 0.992926 0.204411 0.824510
O O7 0.094779 0.307223 0.248508
O O8 0.500000 0.500000 0.500000
O O9 0.900302 0.562545 0.344050
O O10 0.919629 0.428899 0.296377
O O11 0.497779 0.043776 0.322827
O O12 0.039454 0.061458 0.237877
O O13 0.000000 0.000000 0.500000
O O14 0.244332 0.933517 0.033289
O O15 0.261911 0.829906 0.540313
#
# Coordination Sequence:
#
# PCOD9010525 Si02
#       7
#     2   2   2   2   2   2   2
#     4  10  23  39  59  86 120 156 202 252 302 369
#     4  10  21  42  58  86 125 155 205 248 300 367
#     4  11  21  39  59  86 115 154 208 255 308 362
#     4  10  21  40  67  93 125 161 205 241 296 353
#     4  10  21  40  63  93 129 159 197 257 290 347
#     4  10  21  42  61  87 129 160 196 251 303 355
#     4  11  22  39  61  83 118 160 201 259 308 353
#
# _framework density 24.140221
#
# number of rings (size 3 to 8) (size 9 to 14) (size 15 to 20)
#    0.857    0.857    2.857    1.714    0.000    1.714 
#    5.143    0.000    0.000    0.000    0.000    0.000 
#    0.000    0.000    0.000    0.000    0.000    0.000 
#
# Total GULP energy -78130.245535 kJ/mol
# GULP energy per Si atom -5580.731824 kJ/mol
# Density = 2.408528 g / cm^3
# Si number density = 24.140221 Si / 1000 Ang^3
#
#
#
# Elastic Constant Matrix: (Units=GPa)
#
#
# Indices 1 2 3 4 5 6 
#
# 1 121.1805 12.0978 27.4183 7.7981 -7.6210 18.3654
# 2 12.0978 32.9621 27.6148 7.7174 -0.5137 11.5795
# 3 27.4183 27.6148 134.5931 32.5306 -35.1151 27.4198
# 4 7.7981 7.7174 32.5306 36.4848 10.9579 -2.1977
# 5 -7.6210 -0.5137 -35.1151 10.9579 32.1489 0.6207
# 6 18.3654 11.5795 27.4198 -2.1977 0.6207 21.0225
#
#
#
# Elastic Compliance Matrix: (Units=1/GPa)
#
#
# Indices 1 2 3 4 5 6 
#
# 1 0.006735 -0.000665 -0.014016 0.018189 -0.020217 0.015262
# 2 -0.000665 0.041235 -0.005784 -0.002953 -0.004525 -0.014763
# 3 -0.014016 -0.005784 -0.056796 0.090509 -0.098267 0.101872
# 4 0.018189 -0.002953 0.090509 -0.108387 0.142923 -0.147866
# 5 -0.020217 -0.004525 -0.098267 0.142923 -0.133036 0.167194
# 6 0.015262 -0.014763 0.101872 -0.147866 0.167194 -0.110900
#
#
# Mechanical properties :
#
#
# Convention : Reuss Voigt Hill
#
# Bulk Modulus (GPa) = -20.09827 46.99971 13.45072
# Shear Modulus (GPa) = -14.84538 32.70489 8.92975
#
# Velocity S-wave (km/s) = -2.48254 3.68474 1.92540
# Velocity P-wave (km/s) = 4.06953 6.13309 3.24451
#
# Compressibility (1/GPa) = -0.04975552
#
# Stress axis : x y z
#
# Youngs Moduli (GPa) = 148.48296 24.25142 -17.60697
#
# Poissons Ratio (x) = 0.01613 -0.24677
# Poissons Ratio (y) = 0.09875 -0.10184
# Poissons Ratio (z) = 2.08107 0.14027
#
# Static dielectric constant tensor:
#      x y z
#    x 1.977300 -0.029670 0.031120 
#    y -0.029670 1.979840 -0.050540 
#    z 0.031120 -0.050540 1.933010 
# 
# From -- ./inp_files/14215.got.cif
#   From: 2010.05.17/outbox.cif.g08.bks.cpg/sg2_8_cif.got.tgz:14215.got - 2010.06.03 11:33:40.
