data_PCOD9010306
_publ_section_title
;
Structure prediction by ZEFSAII (Michael W. Deem and Ramdas Pophale) SiO2 
 PCOD9010306
Probable space group: P -1
;
_chemical_formula_sum "Si O2"
_cell_formula_units_Z 13
_cell_length_a 12.530345
_cell_length_b 8.541595
_cell_length_c 6.623587
_cell_angle_alpha 101.508252
_cell_angle_beta 122.191447
_cell_angle_gamma 108.410941
_cell_volume 506.012992
_symmetry_space_group_name_H-M "P -1"
_symmetry_group_IT_number 2
_symmetry_cell_setting 'triclinic'
loop_
_space_group_symop_operation_xyz
x,y,z
-x,-y,-z
loop_
_atom_site_type_symbol
_atom_site_label
_atom_site_fract_x
_atom_site_fract_y
_atom_site_fract_z
Si Si1 0.163617 0.846010 0.310427
Si Si2 0.600372 0.206736 0.237859
Si Si3 0.389947 0.563701 0.062135
Si Si4 0.781320 0.763140 0.440538
Si Si5 0.157342 0.302902 0.064916
Si Si6 0.000000 0.000000 0.500000
Si Si7 0.417085 0.112154 0.391945
O O1 0.168464 0.017067 0.493588
O O2 0.250904 0.956455 0.226567
O O3 0.261150 0.778229 0.502828
O O4 0.995873 0.702824 0.069543
O O5 0.650008 0.342252 0.134516
O O6 0.487125 0.217069 0.282303
O O7 0.500000 0.000000 0.000000
O O8 0.357466 0.376106 0.867941
O O9 0.278551 0.482999 0.116738
O O10 0.536469 0.730078 0.351073
O O11 0.785641 0.711117 0.661005
O O12 0.928555 0.792160 0.489009
O O13 0.112792 0.117943 0.842987
O O14 0.500000 0.000000 0.500000
#
# Coordination Sequence:
#
# PCOD9010306 Si02
#       7
#     2   2   2   2   2   1   2
#     4  10  21  41  68  95 122 170 210 257 317 377
#     4  11  22  44  65  86 125 169 213 262 310 372
#     4  11  22  42  66  91 134 167 203 268 316 367
#     4  10  21  40  63  98 134 160 206 262 317 375
#     4  10  21  40  62  98 134 160 206 262 317 374
#     4   8  16  34  60  86 128 168 192 244 312 366
#     4  10  21  42  62  88 123 167 215 256 308 372
#
# _framework density 25.691040000000001
#
# number of rings (size 3 to 8) (size 9 to 14) (size 15 to 20)
#    0.000    1.846    3.077    2.769    0.000    1.231 
#   16.615    8.462    0.000    0.000    0.000    0.000 
#    0.000    0.000    0.000    0.000    0.000    0.000 
#
# Total GULP energy -72430.451306 kJ/mol
# GULP energy per Si atom -5571.573177 kJ/mol
# Density = 2.563257 g / cm^3
# Si number density = 25.691040 Si / 1000 Ang^3
#
#
#
# Elastic Constant Matrix: (Units=GPa)
#
#
# Indices 1 2 3 4 5 6 
#
# 1 79.7095 31.4950 41.5017 -22.4713 -4.1718 8.2325
# 2 31.4950 112.5787 42.1821 -35.0459 -2.7941 27.3944
# 3 41.5017 42.1821 126.8137 -29.3724 -13.0936 5.7590
# 4 -22.4713 -35.0459 -29.3724 60.3909 -4.6985 -13.7458
# 5 -4.1718 -2.7941 -13.0936 -4.6985 43.4558 -4.7642
# 6 8.2325 27.3944 5.7590 -13.7458 -4.7642 37.0269
#
#
#
# Elastic Compliance Matrix: (Units=1/GPa)
#
#
# Indices 1 2 3 4 5 6 
#
# 1 0.016281 -0.002103 -0.003882 0.002922 0.000540 -0.000306
# 2 -0.002103 0.013567 -0.002595 0.004026 -0.000524 -0.007739
# 3 -0.003882 -0.002595 0.011013 0.003296 0.003435 0.002736
# 4 0.002922 0.004026 0.003296 0.023084 0.004578 0.005018
# 5 0.000540 -0.000524 0.003435 0.004578 0.025071 0.004659
# 6 -0.000306 -0.007739 0.002736 0.005018 0.004659 0.034838
#
#
# Mechanical properties :
#
#
# Convention : Reuss Voigt Hill
#
# Bulk Modulus (GPa) = 42.19097 61.05104 51.62100
# Shear Modulus (GPa) = 33.57639 41.76960 37.67299
#
# Velocity S-wave (km/s) = 3.61907 4.03655 3.83350
# Velocity P-wave (km/s) = 5.82423 6.74834 6.30324
#
# Compressibility (1/GPa) = 0.02370176
#
# Stress axis : x y z
#
# Youngs Moduli (GPa) = 61.41942 73.71010 90.80093
#
# Poissons Ratio (x) = 0.15498 0.35253
# Poissons Ratio (y) = 0.12914 0.23560
# Poissons Ratio (z) = 0.23846 0.19126
#
# Static dielectric constant tensor:
#      x y z
#    x 1.075640 -0.149260 0.039910 
#    y -0.149260 2.008220 0.039260 
#    z 0.039910 0.039260 2.013510 
# 
# From -- ./inp_files/89019.got.cif
#   From: 2010.05.17/outbox.cif.g08.bks.cpg/sg2_45_cif.got.tgz:89019.got - 2010.06.03 11:33:40.
