data_PCOD9010137
_publ_section_title
;
Structure prediction by ZEFSAII (Michael W. Deem and Ramdas Pophale) SiO2 
 PCOD9010137
Probable space group: P -1
;
_chemical_formula_sum "Si O2"
_cell_formula_units_Z 16
_cell_length_a 6.179627
_cell_length_b 6.186926
_cell_length_c 19.971092
_cell_angle_alpha 77.155106
_cell_angle_beta 102.926710
_cell_angle_gamma 91.339329
_cell_volume 725.299460
_symmetry_space_group_name_H-M "P -1"
_symmetry_group_IT_number 2
_symmetry_cell_setting 'triclinic'
loop_
_space_group_symop_operation_xyz
x,y,z
-x,-y,-z
loop_
_atom_site_type_symbol
_atom_site_label
_atom_site_fract_x
_atom_site_fract_y
_atom_site_fract_z
Si Si1 0.006756 0.859939 0.107819
Si Si2 0.166673 0.365256 0.472861
Si Si3 0.330604 0.145966 0.022992
Si Si4 0.325704 0.807669 0.855963
Si Si5 0.319023 0.151465 0.721413
Si Si6 0.935560 0.877261 0.643641
Si Si7 0.037719 0.489682 0.769688
Si Si8 0.438924 0.751363 0.398165
O O1 0.088652 0.678190 0.179451
O O2 0.193922 0.981449 0.071681
O O3 0.857139 0.045378 0.124718
O O4 0.846831 0.750192 0.048320
O O5 0.034084 0.216713 0.422211
O O6 0.306360 0.536799 0.426472
O O7 0.345170 0.237783 0.540533
O O8 0.000000 0.500000 0.500000
O O9 0.482844 0.281604 0.074647
O O10 0.500000 0.000000 0.000000
O O11 0.206561 0.618804 0.819994
O O12 0.417430 0.981968 0.795589
O O13 0.178676 0.342075 0.736889
O O14 0.487896 0.251537 0.673711
O O15 0.144095 0.009609 0.676343
O O16 0.902068 0.675680 0.706811
O O17 0.722552 0.038515 0.616985
#
# Coordination Sequence:
#
# PCOD9010137 Si02
#       8
#     2   2   2   2   2   2   2   2
#     4   9  19  38  60  86 121 158 199 247 300 356
#     4  11  25  43  64  91 122 158 201 249 300 359
#     4   9  18  37  60  84 120 160 199 248 299 351
#     4   9  20  36  59  88 118 156 199 247 301 355
#     4  10  23  42  61  88 124 159 201 250 300 358
#     4  11  23  41  63  88 123 159 197 249 303 357
#     4  10  21  40  62  88 123 160 200 249 302 357
#     4  11  24  41  64  92 120 157 202 246 302 360
#
# _framework density 22.059853
#
# number of rings (size 3 to 8) (size 9 to 14) (size 15 to 20)
#    0.000    2.000    0.000    2.625    0.000   10.500 
#    0.000   15.625    0.000    0.000    0.000    0.000 
#    0.000    0.000    0.000    0.000    0.000    0.000 
#
# Total GULP energy -89469.645435 kJ/mol
# GULP energy per Si atom -5591.852840 kJ/mol
# Density = 2.200964 g / cm^3
# Si number density = 22.059853 Si / 1000 Ang^3
#
#
#
# Elastic Constant Matrix: (Units=GPa)
#
#
# Indices 1 2 3 4 5 6 
#
# 1 54.1394 2.4749 42.6346 1.5437 -14.4735 4.7083
# 2 2.4749 58.4997 39.5750 11.1654 2.7258 3.4612
# 3 42.6346 39.5750 125.2180 13.4612 -11.8414 0.7974
# 4 1.5437 11.1654 13.4612 48.2865 16.1183 5.2191
# 5 -14.4735 2.7258 -11.8414 16.1183 54.5127 -3.5781
# 6 4.7083 3.4612 0.7974 5.2191 -3.5781 17.2664
#
#
#
# Elastic Compliance Matrix: (Units=1/GPa)
#
#
# Indices 1 2 3 4 5 6 
#
# 1 0.029192 0.006910 -0.011682 0.000150 0.004301 -0.007960
# 2 0.006910 0.024299 -0.009907 -0.001985 -0.001338 -0.005975
# 3 -0.011682 -0.009907 0.015571 -0.002981 0.002036 0.005775
# 4 0.000150 -0.001985 -0.002981 0.025912 -0.008771 -0.009155
# 5 0.004301 -0.001338 0.002036 -0.008771 0.023010 0.006421
# 6 -0.007960 -0.005975 0.005775 -0.009155 0.006421 0.065116
#
#
# Mechanical properties :
#
#
# Convention : Reuss Voigt Hill
#
# Bulk Modulus (GPa) = 25.18704 45.24735 35.21719
# Shear Modulus (GPa) = 22.15388 34.22461 28.18925
#
# Velocity S-wave (km/s) = 3.17245 3.94311 3.57858
# Velocity P-wave (km/s) = 4.98614 6.42546 5.75101
#
# Compressibility (1/GPa) = 0.03970296
#
# Stress axis : x y z
#
# Youngs Moduli (GPa) = 34.25556 41.15426 64.22171
#
# Poissons Ratio (x) = -0.28437 0.75025
# Poissons Ratio (y) = -0.23670 0.63626
# Poissons Ratio (z) = 0.40018 0.40773
#
# Static dielectric constant tensor:
#      x y z
#    x 1.786340 0.037920 0.017310 
#    y 0.037920 1.795960 -0.001510 
#    z 0.017310 -0.001510 1.822520 
# 
# From -- ./inp_files/10692.got.cif
#   From: 2010.05.17/outbox.cif.g08.bks.cpg/sg2_6_cif.got.tgz:10692.got - 2010.06.03 11:33:40.
