data_PCOD9010749
_publ_section_title
;
Structure prediction by ZEFSAII (Michael W. Deem and Ramdas Pophale) SiO2 
 PCOD9010749
Probable space group: P -1
;
_chemical_formula_sum "Si O2"
_cell_formula_units_Z 16
_cell_length_a 12.899198
_cell_length_b 20.282569
_cell_length_c 9.384863
_cell_angle_alpha 55.214593
_cell_angle_beta 48.562315
_cell_angle_gamma 23.389235
_cell_volume 725.075015
_symmetry_space_group_name_H-M "P -1"
_symmetry_group_IT_number 2
_symmetry_cell_setting 'triclinic'
loop_
_space_group_symop_operation_xyz
x,y,z
-x,-y,-z
loop_
_atom_site_type_symbol
_atom_site_label
_atom_site_fract_x
_atom_site_fract_y
_atom_site_fract_z
Si Si1 0.755523 0.526436 0.587740
Si Si2 0.794570 0.578646 0.800095
Si Si3 0.772210 0.341716 0.848789
Si Si4 0.671686 0.344029 0.621367
Si Si5 0.414270 0.792430 0.138348
Si Si6 0.257750 0.244156 0.930189
Si Si7 0.911052 0.160468 0.194469
Si Si8 0.219732 0.087605 0.270123
O O1 0.728156 0.582739 0.697287
O O2 0.897274 0.365940 0.671120
O O3 0.421720 0.684802 0.652176
O O4 0.960358 0.477545 0.366641
O O5 0.949043 0.426426 0.928697
O O6 0.523076 0.744105 0.936063
O O7 0.661167 0.360908 0.779382
O O8 0.500000 0.500000 0.000000
O O9 0.942988 0.193561 0.976628
O O10 0.500000 0.500000 0.500000
O O11 0.561844 0.312749 0.715337
O O12 0.008383 0.178055 0.479400
O O13 0.616063 0.747224 0.103819
O O14 0.091699 0.987375 0.221719
O O15 0.474617 0.113176 0.764142
O O16 0.257105 0.163567 0.122406
O O17 0.057698 0.137239 0.214811
#
# Coordination Sequence:
#
# PCOD9010749 Si02
#       8
#     2   2   2   2   2   2   2   2
#     4  10  23  39  65  90 127 172 215 264 322 390
#     4  11  23  40  60  94 129 171 213 261 331 385
#     4  10  21  40  64  90 128 170 208 268 323 374
#     4  12  25  38  65 101 128 167 225 269 314 391
#     4  11  25  40  68  97 130 169 216 271 328 374
#     4  10  23  42  66  88 138 172 204 272 326 391
#     4  10  22  44  69  92 131 170 222 268 322 386
#     4  10  23  42  66  98 127 172 220 262 331 379
#
# _framework density 22.066682
#
# number of rings (size 3 to 8) (size 9 to 14) (size 15 to 20)
#    0.000    1.500    0.000    4.875    7.000    3.000 
#    2.250    0.625    0.000    0.000    0.000    0.000 
#    0.000    0.000    0.000    0.000    0.000    0.000 
#
# Total GULP energy -89485.622066 kJ/mol
# GULP energy per Si atom -5592.851379 kJ/mol
# Density = 2.201646 g / cm^3
# Si number density = 22.066682 Si / 1000 Ang^3
#
#
#
# Elastic Constant Matrix: (Units=GPa)
#
#
# Indices 1 2 3 4 5 6 
#
# 1 80.1574 25.9040 32.7320 -8.8008 -9.6912 24.2785
# 2 25.9040 63.3398 23.6301 -7.0509 -6.5579 18.4174
# 3 32.7320 23.6301 71.3000 5.9924 -6.6080 20.3756
# 4 -8.8008 -7.0509 5.9924 32.3465 0.0785 -5.8373
# 5 -9.6912 -6.5579 -6.6080 0.0785 39.9620 -4.0672
# 6 24.2785 18.4174 20.3756 -5.8373 -4.0672 32.5418
#
#
#
# Elastic Compliance Matrix: (Units=1/GPa)
#
#
# Indices 1 2 3 4 5 6 
#
# 1 0.018752 -0.002544 -0.005606 0.004136 0.002381 -0.008001
# 2 -0.002544 0.020750 -0.003982 0.003381 0.001455 -0.006564
# 3 -0.005606 -0.003982 0.020897 -0.007701 0.000649 -0.007949
# 4 0.004136 0.003381 -0.007701 0.035333 0.000853 0.006267
# 5 0.002381 0.001455 0.000649 0.000853 0.025986 0.000395
# 6 -0.008001 -0.006564 -0.007949 0.006267 0.000395 0.046564
#
#
# Mechanical properties :
#
#
# Convention : Reuss Voigt Hill
#
# Bulk Modulus (GPa) = 27.67485 42.14771 34.91128
# Shear Modulus (GPa) = 24.43889 29.80547 27.12218
#
# Velocity S-wave (km/s) = 3.33153 3.67917 3.50966
# Velocity P-wave (km/s) = 5.23139 6.09836 5.68144
#
# Compressibility (1/GPa) = 0.03613389
#
# Stress axis : x y z
#
# Youngs Moduli (GPa) = 53.32714 48.19387 47.85263
#
# Poissons Ratio (x) = 0.12262 0.26826
# Poissons Ratio (y) = 0.13568 0.19057
# Poissons Ratio (z) = 0.29895 0.19193
#
# Static dielectric constant tensor:
#      x y z
#    x 1.801160 -0.000480 -0.016580 
#    y -0.000480 1.818120 -0.024950 
#    z -0.016580 -0.024950 1.858060 
# 
# From -- ./inp_files/279202.got.cif
#   From: 2010.05.17/outbox.cif.g08.bks.cpg/sg2_140_cif.got.tgz:279202.got - 2010.06.03 11:33:40.
