data_PCOD9010216
_publ_section_title
;
Structure prediction by ZEFSAII (Michael W. Deem and Ramdas Pophale) SiO2 
 PCOD9010216
Probable space group: P -1
;
_chemical_formula_sum "Si O2"
_cell_formula_units_Z 16
_cell_length_a 16.417657
_cell_length_b 11.714912
_cell_length_c 9.188096
_cell_angle_alpha 39.216395
_cell_angle_beta 49.228588
_cell_angle_gamma 45.084209
_cell_volume 768.705202
_symmetry_space_group_name_H-M "P -1"
_symmetry_group_IT_number 2
_symmetry_cell_setting 'triclinic'
loop_
_space_group_symop_operation_xyz
x,y,z
-x,-y,-z
loop_
_atom_site_type_symbol
_atom_site_label
_atom_site_fract_x
_atom_site_fract_y
_atom_site_fract_z
Si Si1 0.909800 0.401162 0.159103
Si Si2 0.239116 0.208524 0.200169
Si Si3 0.813240 0.499814 0.469382
Si Si4 0.055501 0.075287 0.079225
Si Si5 0.528028 0.955988 0.730933
Si Si6 0.260777 0.061026 0.010483
Si Si7 0.440470 0.350330 0.258971
Si Si8 0.964015 0.762823 0.373542
O O1 0.862560 0.361816 0.405922
O O2 0.979092 0.217137 0.156989
O O3 0.801952 0.568225 0.032796
O O4 0.000000 0.500000 0.000000
O O5 0.372405 0.108321 0.199244
O O6 0.226909 0.085721 0.195743
O O7 0.149658 0.227416 0.416568
O O8 0.690563 0.517224 0.659644
O O9 0.917705 0.430634 0.533725
O O10 0.784507 0.718076 0.223941
O O11 0.189171 0.968575 0.089279
O O12 0.995732 0.934562 0.235637
O O13 0.055714 0.196193 0.813991
O O14 0.569857 0.781564 0.733818
O O15 0.508631 0.170710 0.472719
O O16 0.401363 0.971081 0.917821
O O17 0.500000 0.500000 0.000000
#
# Coordination Sequence:
#
# PCOD9010216 Si02
#       8
#     2   2   2   2   2   2   2   2
#     4  11  20  41  63  90 124 169 209 260 323 387
#     4  11  22  40  64  93 129 164 215 259 321 386
#     4  10  21  40  62  92 119 164 211 260 324 374
#     4  11  24  39  59  93 131 161 213 263 329 379
#     4  10  24  41  67  94 126 178 213 263 324 375
#     4  10  21  42  65  86 125 173 210 263 315 391
#     4  10  24  43  66  95 130 168 219 268 317 383
#     4  11  25  36  61  97 126 164 205 275 321 387
#
# _framework density 20.814222000000001
#
# number of rings (size 3 to 8) (size 9 to 14) (size 15 to 20)
#    0.000    1.500    3.750    0.375    8.750    4.000 
#    0.000    0.000    0.000    3.000    0.000    0.000 
#    0.000    0.000    0.000    0.000    0.000    0.000 
#
# Total GULP energy -89380.361184 kJ/mol
# GULP energy per Si atom -5586.272574 kJ/mol
# Density = 2.076685 g / cm^3
# Si number density = 20.814222 Si / 1000 Ang^3
#
#
#
# Elastic Constant Matrix: (Units=GPa)
#
#
# Indices 1 2 3 4 5 6 
#
# 1 118.3144 47.0082 18.2026 -3.6491 3.8177 -26.1063
# 2 47.0082 100.8918 43.8243 17.3968 -4.9667 -7.5543
# 3 18.2026 43.8243 81.8144 10.4063 -13.3265 -10.0724
# 4 -3.6491 17.3968 10.4063 35.6565 -2.1953 -5.9904
# 5 3.8177 -4.9667 -13.3265 -2.1953 27.2656 -6.4357
# 6 -26.1063 -7.5543 -10.0724 -5.9904 -6.4357 38.3566
#
#
#
# Elastic Compliance Matrix: (Units=1/GPa)
#
#
# Indices 1 2 3 4 5 6 
#
# 1 0.013186 -0.007003 0.001151 0.005912 -0.000001 0.008821
# 2 -0.007003 0.017394 -0.007558 -0.007880 -0.001306 -0.004775
# 3 0.001151 -0.007558 0.018094 -0.000025 0.008599 0.005485
# 4 0.005912 -0.007880 -0.000025 0.034024 0.002395 0.008181
# 5 -0.000001 -0.001306 0.008599 0.002395 0.043101 0.009606
# 6 0.008821 -0.004775 0.005485 0.008181 0.009606 0.035464
#
#
# Mechanical properties :
#
#
# Convention : Reuss Voigt Hill
#
# Bulk Modulus (GPa) = 45.75452 57.67675 51.71564
# Shear Modulus (GPa) = 25.59278 33.05476 29.32377
#
# Velocity S-wave (km/s) = 3.51034 3.98940 3.75752
# Velocity P-wave (km/s) = 6.20162 6.99935 6.61252
#
# Compressibility (1/GPa) = 0.02185576
#
# Stress axis : x y z
#
# Youngs Moduli (GPa) = 75.83811 57.49078 55.26704
#
# Poissons Ratio (x) = 0.40259 -0.06362
# Poissons Ratio (y) = 0.53107 0.41768
# Poissons Ratio (z) = -0.08730 0.43449
#
# Static dielectric constant tensor:
#      x y z
#    x 1.746360 0.014040 0.000800 
#    y 0.014040 1.774630 -0.017550 
#    z 0.000800 -0.017550 1.769480 
# 
# From -- ./inp_files/306138.got.cif
#   From: 2010.05.17/outbox.cif.g08.bks.cpg/sg2_154_cif.got.tgz:306138.got - 2010.06.03 11:33:40.
