data_PCOD9010131
_publ_section_title
;
Structure prediction by ZEFSAII (Michael W. Deem and Ramdas Pophale) SiO2 
 PCOD9010131
Probable space group: P -1
;
_chemical_formula_sum "Si O2"
_cell_formula_units_Z 16
_cell_length_a 6.195710
_cell_length_b 14.598995
_cell_length_c 9.261206
_cell_angle_alpha 86.179783
_cell_angle_beta 102.834470
_cell_angle_gamma 113.073845
_cell_volume 751.222601
_symmetry_space_group_name_H-M "P -1"
_symmetry_group_IT_number 2
_symmetry_cell_setting 'triclinic'
loop_
_space_group_symop_operation_xyz
x,y,z
-x,-y,-z
loop_
_atom_site_type_symbol
_atom_site_label
_atom_site_fract_x
_atom_site_fract_y
_atom_site_fract_z
Si Si1 0.826786 0.186557 0.485354
Si Si2 0.942853 0.493184 0.824269
Si Si3 0.749504 0.483784 0.384877
Si Si4 0.857320 0.884861 0.266379
Si Si5 0.657075 0.052060 0.220678
Si Si6 0.832940 0.119371 0.934130
Si Si7 0.745728 0.631381 0.596216
Si Si8 0.340475 0.732149 0.274072
O O1 0.646700 0.116881 0.348693
O O2 0.724091 0.244292 0.576387
O O3 0.926591 0.120500 0.606748
O O4 0.050464 0.263171 0.420210
O O5 0.846270 0.573547 0.734195
O O6 0.757784 0.383504 0.764316
O O7 0.185631 0.506903 0.772701
O O8 0.000000 0.500000 0.000000
O O9 0.695845 0.572176 0.441894
O O10 0.518956 0.383563 0.389373
O O11 0.000000 0.500000 0.500000
O O12 0.621486 0.787920 0.278200
O O13 0.934057 0.884807 0.110150
O O14 0.791006 0.978119 0.283939
O O15 0.392228 0.979813 0.138671
O O16 0.807513 0.117719 0.102400
O O17 0.790151 0.213892 0.853791
#
# Coordination Sequence:
#
# PCOD9010131 Si02
#       8
#     2   2   2   2   2   2   2   2
#     4  11  23  37  62  90 120 153 201 245 298 358
#     4  11  24  40  60  87 126 162 201 249 302 355
#     4   9  20  40  63  83 120 157 201 244 300 350
#     4  10  22  38  61  89 118 155 195 246 303 354
#     4  10  21  40  62  88 120 154 195 248 298 357
#     4   9  21  41  63  84 120 159 194 241 301 359
#     4  10  22  38  63  88 117 163 201 246 298 358
#     4  10  23  40  59  87 122 157 199 248 294 354
#
# _framework density 21.298613
#
# number of rings (size 3 to 8) (size 9 to 14) (size 15 to 20)
#    0.000    2.000    1.250    0.750    7.000    6.000 
#    2.250    0.000    0.000    0.000    0.000    0.000 
#    0.000    0.000    0.000    0.000    0.000    0.000 
#
# Total GULP energy -89355.744828 kJ/mol
# GULP energy per Si atom -5584.734052 kJ/mol
# Density = 2.125014 g / cm^3
# Si number density = 21.298613 Si / 1000 Ang^3
#
#
#
# Elastic Constant Matrix: (Units=GPa)
#
#
# Indices 1 2 3 4 5 6 
#
# 1 69.8301 11.0577 40.5532 -4.9058 -17.1727 16.8792
# 2 11.0577 59.3602 32.6349 -15.0432 -3.0784 0.2188
# 3 40.5532 32.6349 132.7187 -1.8509 -24.7154 -5.6653
# 4 -4.9058 -15.0432 -1.8509 25.9519 2.0571 -5.4174
# 5 -17.1727 -3.0784 -24.7154 2.0571 26.5987 -11.3734
# 6 16.8792 0.2188 -5.6653 -5.4174 -11.3734 24.4101
#
#
#
# Elastic Compliance Matrix: (Units=1/GPa)
#
#
# Indices 1 2 3 4 5 6 
#
# 1 0.023198 0.000113 -0.007863 0.000169 0.000059 -0.017802
# 2 0.000113 0.023597 -0.006597 0.013382 -0.004833 -0.001102
# 3 -0.007863 -0.006597 0.014936 -0.002211 0.014776 0.015356
# 4 0.000169 0.013382 -0.002211 0.048245 0.000162 0.010033
# 5 0.000059 -0.004833 0.014776 0.000162 0.065280 0.033883
# 6 -0.017802 -0.001102 0.015356 0.010033 0.033883 0.074864
#
#
# Mechanical properties :
#
#
# Convention : Reuss Voigt Hill
#
# Bulk Modulus (GPa) = 30.26923 47.82231 39.04577
# Shear Modulus (GPa) = 17.25166 27.23635 22.24400
#
# Velocity S-wave (km/s) = 2.84912 3.57989 3.23520
# Velocity P-wave (km/s) = 5.00660 6.29202 5.68575
#
# Compressibility (1/GPa) = 0.03303685
#
# Stress axis : x y z
#
# Youngs Moduli (GPa) = 43.10658 42.37829 66.95378
#
# Poissons Ratio (x) = -0.00478 0.52643
# Poissons Ratio (y) = -0.00486 0.44171
# Poissons Ratio (z) = 0.33893 0.27958
#
# Static dielectric constant tensor:
#      x y z
#    x 1.823650 -0.009440 -0.005160 
#    y -0.009440 1.784850 -0.030040 
#    z -0.005160 -0.030040 1.788800 
# 
# From -- ./inp_files/39832.got.cif
#   From: 2010.05.17/outbox.cif.g08.bks.cpg/sg2_20_cif.got.tgz:39832.got - 2010.06.03 11:33:40.
