data_PCOD9010611
_publ_section_title
;
Structure prediction by ZEFSAII (Michael W. Deem and Ramdas Pophale) SiO2 
 PCOD9010611
Probable space group: P -1
;
_chemical_formula_sum "Si O2"
_cell_formula_units_Z 15
_cell_length_a 21.434272
_cell_length_b 10.870425
_cell_length_c 6.518143
_cell_angle_alpha 63.311392
_cell_angle_beta 59.463390
_cell_angle_gamma 27.189466
_cell_volume 597.693849
_symmetry_space_group_name_H-M "P -1"
_symmetry_group_IT_number 2
_symmetry_cell_setting 'triclinic'
loop_
_space_group_symop_operation_xyz
x,y,z
-x,-y,-z
loop_
_atom_site_type_symbol
_atom_site_label
_atom_site_fract_x
_atom_site_fract_y
_atom_site_fract_z
Si Si1 0.648752 0.832640 0.125674
Si Si2 0.169855 0.081374 0.499513
Si Si3 0.076523 0.484518 0.091885
Si Si4 0.500000 0.500000 0.500000
Si Si5 0.790820 0.327390 0.758530
Si Si6 0.534861 0.734349 0.569481
Si Si7 0.551592 0.659228 0.171952
Si Si8 0.008509 0.769413 0.636487
O O1 0.583531 0.792279 0.322291
O O2 0.604149 0.001432 0.269027
O O3 0.814531 0.566092 0.010287
O O4 0.561419 0.044733 0.929831
O O5 0.165590 0.213553 0.242907
O O6 0.092600 0.087165 0.496297
O O7 0.065076 0.282865 0.712790
O O8 0.322771 0.803155 0.536337
O O9 0.043142 0.570506 0.844428
O O10 0.525945 0.553141 0.197814
O O11 0.663709 0.498608 0.684418
O O12 0.852423 0.375435 0.558721
O O13 0.919341 0.011808 0.758329
O O14 0.707797 0.456831 0.014257
O O15 0.516759 0.660363 0.463708
#
# Coordination Sequence:
#
# PCOD9010611 Si02
#       8
#     2   2   2   1   2   2   2   2
#     4  10  21  40  63  97 132 164 222 272 315 403
#     4  11  26  44  70  95 133 181 218 269 335 386
#     4  11  23  46  65 100 133 171 228 272 317 403
#     4  12  24  48  64  96 136 170 226 268 316 408
#     4  10  23  40  64 100 128 163 227 270 322 399
#     4  10  21  40  65  95 130 171 213 271 337 376
#     4  11  23  41  65  94 131 178 212 270 331 387
#     4  11  23  43  68  96 132 173 215 277 334 384
#
# _framework density 25.096464000000001
#
# number of rings (size 3 to 8) (size 9 to 14) (size 15 to 20)
#    0.000    1.333    2.667    2.400    1.867    1.067 
#    4.800    7.333    0.000    0.000    0.000    0.000 
#    0.000    0.000    0.000    0.000    0.000    0.000 
#
# Total GULP energy -83658.981486 kJ/mol
# GULP energy per Si atom -5577.265432 kJ/mol
# Density = 2.503934 g / cm^3
# Si number density = 25.096464 Si / 1000 Ang^3
#
#
#
# Elastic Constant Matrix: (Units=GPa)
#
#
# Indices 1 2 3 4 5 6 
#
# 1 59.9065 23.6613 32.4540 1.5132 2.3532 -13.7788
# 2 23.6613 135.2237 34.9274 -1.1841 0.6169 -18.5446
# 3 32.4540 34.9274 108.0274 3.6299 -8.7256 -5.7035
# 4 1.5132 -1.1841 3.6299 38.6784 7.8268 -9.3317
# 5 2.3532 0.6169 -8.7256 7.8268 43.7384 2.6456
# 6 -13.7788 -18.5446 -5.7035 -9.3317 2.6456 38.6800
#
#
#
# Elastic Compliance Matrix: (Units=1/GPa)
#
#
# Indices 1 2 3 4 5 6 
#
# 1 0.022289 -0.001281 -0.006235 0.002044 -0.003221 0.007120
# 2 -0.001281 0.008791 -0.002396 0.001699 -0.001072 0.003889
# 3 -0.006235 -0.002396 0.012124 -0.002205 0.003324 -0.002341
# 4 0.002044 0.001699 -0.002205 0.029434 -0.006370 0.008754
# 5 -0.003221 -0.001072 0.003324 -0.006370 0.025123 -0.004427
# 6 0.007120 0.003889 -0.002341 0.008754 -0.004427 0.032323
#
#
# Mechanical properties :
#
#
# Convention : Reuss Voigt Hill
#
# Bulk Modulus (GPa) = 42.77095 53.91587 48.34341
# Shear Modulus (GPa) = 31.70563 38.36035 35.03299
#
# Velocity S-wave (km/s) = 3.55822 3.91387 3.74027
# Velocity P-wave (km/s) = 5.82759 6.47723 6.16098
#
# Compressibility (1/GPa) = 0.02338035
#
# Stress axis : x y z
#
# Youngs Moduli (GPa) = 44.86565 113.75045 82.48308
#
# Poissons Ratio (x) = 0.14567 0.51428
# Poissons Ratio (y) = 0.05746 0.19763
# Poissons Ratio (z) = 0.27974 0.27255
#
# Static dielectric constant tensor:
#      x y z
#    x 2.524930 0.111990 0.145220 
#    y 0.111990 1.907260 0.011060 
#    z 0.145220 0.011060 2.093930 
# 
# From -- ./inp_files/127088.got.cif
#   From: 2010.05.17/outbox.cif.g08.bks.cpg/sg2_64_cif.got.tgz:127088.got - 2010.06.03 11:33:40.
