data_PCOD9010101
_publ_section_title
;
Structure prediction by ZEFSAII (Michael W. Deem and Ramdas Pophale) SiO2 
 PCOD9010101
Probable space group: P -1
;
_chemical_formula_sum "Si O2"
_cell_formula_units_Z 14
_cell_length_a 19.611743
_cell_length_b 7.064944
_cell_length_c 10.925637
_cell_angle_alpha 98.846599
_cell_angle_beta 37.947601
_cell_angle_gamma 70.760968
_cell_volume 616.776682
_symmetry_space_group_name_H-M "P -1"
_symmetry_group_IT_number 2
_symmetry_cell_setting 'triclinic'
loop_
_space_group_symop_operation_xyz
x,y,z
-x,-y,-z
loop_
_atom_site_type_symbol
_atom_site_label
_atom_site_fract_x
_atom_site_fract_y
_atom_site_fract_z
Si Si1 0.160245 0.926780 0.803026
Si Si2 0.861505 0.255414 0.633891
Si Si3 0.665044 0.760092 0.665370
Si Si4 0.987337 0.417936 0.289346
Si Si5 0.687895 0.295933 0.675045
Si Si6 0.720883 0.712162 0.058017
Si Si7 0.390434 0.305974 0.524401
O O1 0.241614 0.905448 0.561665
O O2 0.295333 0.623865 0.654973
O O3 0.094943 0.178435 0.007346
O O4 0.000000 0.000000 0.000000
O O5 0.792833 0.175276 0.637614
O O6 0.941904 0.314222 0.441144
O O7 0.722000 0.540564 0.940139
O O8 0.000000 0.000000 0.500000
O O9 0.705260 0.488568 0.614716
O O10 0.644295 0.787202 0.552050
O O11 0.812910 0.698018 0.502971
O O12 0.500000 0.000000 0.000000
O O13 0.096345 0.437340 0.202090
O O14 0.500000 0.500000 0.000000
O O15 0.676406 0.688124 0.252221
O O16 0.589080 0.042985 0.235823
#
# Coordination Sequence:
#
# PCOD9010101 Si02
#       7
#     2   2   2   2   2   2   2
#     4  11  20  43  69  88 127 166 220 266 314 370
#     4  11  23  40  62  88 132 166 205 263 317 379
#     4  10  21  40  62  85 126 165 209 268 313 363
#     4  11  23  40  64  95 122 171 218 263 313 387
#     4  10  23  39  64  93 117 160 216 262 310 370
#     4  11  25  39  61  96 132 165 212 253 331 391
#     4  10  22  41  61  88 131 169 203 270 320 375
#
# _framework density 22.698651999999999
#
# number of rings (size 3 to 8) (size 9 to 14) (size 15 to 20)
#    0.000    1.429    4.286    3.000    0.000    8.000 
#    0.000    0.000    0.000    0.000    0.000    0.000 
#    0.000    0.000    0.000    0.000    0.000    0.000 
#
# Total GULP energy -78232.549470 kJ/mol
# GULP energy per Si atom -5588.039248 kJ/mol
# Density = 2.264699 g / cm^3
# Si number density = 22.698652 Si / 1000 Ang^3
#
#
#
# Elastic Constant Matrix: (Units=GPa)
#
#
# Indices 1 2 3 4 5 6 
#
# 1 96.5747 35.3704 44.2571 -5.4251 3.5259 -25.2826
# 2 35.3704 81.1147 37.3358 5.1541 -1.7714 -27.9533
# 3 44.2571 37.3358 140.4059 1.1804 14.4062 -27.0511
# 4 -5.4251 5.1541 1.1804 38.0880 -7.2138 1.5952
# 5 3.5259 -1.7714 14.4062 -7.2138 49.0751 1.9212
# 6 -25.2826 -27.9533 -27.0511 1.5952 1.9212 36.9870
#
#
#
# Elastic Compliance Matrix: (Units=1/GPa)
#
#
# Indices 1 2 3 4 5 6 
#
# 1 0.014290 -0.003391 -0.002589 0.002307 -0.000254 0.005225
# 2 -0.003391 0.018464 -0.001874 -0.003249 0.000576 0.010376
# 3 -0.002589 -0.001874 0.009522 -0.001146 -0.003001 0.003983
# 4 0.002307 -0.003249 -0.001146 0.028004 0.004293 -0.003147
# 5 -0.000254 0.000576 -0.003001 0.004293 0.022056 -0.003264
# 6 0.005225 0.010376 0.003983 -0.003147 -0.003264 0.041669
#
#
# Mechanical properties :
#
#
# Convention : Reuss Voigt Hill
#
# Bulk Modulus (GPa) = 37.63910 61.33575 49.48743
# Shear Modulus (GPa) = 31.53232 38.23883 34.88558
#
# Velocity S-wave (km/s) = 3.73120 4.10888 3.92459
# Velocity P-wave (km/s) = 5.93132 7.04208 6.51043
#
# Compressibility (1/GPa) = 0.02656812
#
# Stress axis : x y z
#
# Youngs Moduli (GPa) = 69.97900 54.15901 105.02511
#
# Poissons Ratio (x) = 0.18365 0.27193
# Poissons Ratio (y) = 0.23729 0.19678
# Poissons Ratio (z) = 0.18119 0.10148
#
# Static dielectric constant tensor:
#      x y z
#    x 1.910860 0.024630 0.092670 
#    y 0.024630 1.855690 0.071720 
#    z 0.092670 0.071720 1.972830 
# 
# From -- ./inp_files/157858.got.cif
#   From: 2010.05.17/outbox.cif.g08.bks.cpg/sg2_79_cif.got.tgz:157858.got - 2010.06.03 11:33:40.
