data_PCOD9010690
_publ_section_title
;
Structure prediction by ZEFSAII (Michael W. Deem and Ramdas Pophale) SiO2 
 PCOD9010690
Probable space group: P -1
;
_chemical_formula_sum "Si O2"
_cell_formula_units_Z 14
_cell_length_a 10.798251
_cell_length_b 19.504572
_cell_length_c 8.209273
_cell_angle_alpha 40.911615
_cell_angle_beta 39.235111
_cell_angle_gamma 30.157520
_cell_volume 528.895548
_symmetry_space_group_name_H-M "P -1"
_symmetry_group_IT_number 2
_symmetry_cell_setting 'triclinic'
loop_
_space_group_symop_operation_xyz
x,y,z
-x,-y,-z
loop_
_atom_site_type_symbol
_atom_site_label
_atom_site_fract_x
_atom_site_fract_y
_atom_site_fract_z
Si Si1 0.084745 0.074471 0.666570
Si Si2 0.113498 0.425235 0.194105
Si Si3 0.443315 0.841154 0.943615
Si Si4 0.013196 0.764370 0.814612
Si Si5 0.327053 0.309068 0.674197
Si Si6 0.194837 0.819639 0.818244
Si Si7 0.504701 0.534085 0.121354
O O1 0.129550 0.150959 0.358014
O O2 0.272497 0.000767 0.764884
O O3 0.134926 0.949252 0.735958
O O4 0.772524 0.173964 0.839462
O O5 0.304134 0.261351 0.248664
O O6 0.305309 0.444650 0.034717
O O7 0.854358 0.523894 0.395137
O O8 0.000000 0.500000 0.000000
O O9 0.525632 0.789104 0.138764
O O10 0.006321 0.856956 0.791648
O O11 0.875583 0.711678 0.123344
O O12 0.320416 0.627559 0.698780
O O13 0.524632 0.260476 0.414952
O O14 0.229238 0.699845 0.103708
O O15 0.500000 0.500000 0.000000
#
# Coordination Sequence:
#
# PCOD9010690 Si02
#       7
#     2   2   2   2   2   2   2
#     4  11  22  39  66  91 128 173 209 251 323 385
#     4   9  18  37  62  89 123 166 209 258 316 374
#     4  10  21  40  64  88 127 176 207 249 320 393
#     4  10  22  38  62  96 124 160 212 267 308 371
#     4  10  22  39  68  92 127 161 215 267 314 371
#     4  11  21  41  67  92 125 170 209 260 323 374
#     4   9  19  37  62  90 127 157 214 266 304 373
#
# _framework density 26.470257
#
# number of rings (size 3 to 8) (size 9 to 14) (size 15 to 20)
#    0.000    2.000    2.857    0.429    0.000    3.429 
#    0.000    2.857    3.143    0.000    0.000    0.000 
#    0.000    0.000    0.000    0.000    0.000    0.000 
#
# Total GULP energy -78010.063380 kJ/mol
# GULP energy per Si atom -5572.147384 kJ/mol
# Density = 2.641001 g / cm^3
# Si number density = 26.470257 Si / 1000 Ang^3
#
#
#
# Elastic Constant Matrix: (Units=GPa)
#
#
# Indices 1 2 3 4 5 6 
#
# 1 101.7859 19.7124 13.6274 -11.7118 17.1019 -8.9309
# 2 19.7124 118.1385 26.5751 5.5213 8.2823 3.1015
# 3 13.6274 26.5751 86.6456 -6.8726 5.7879 -1.2414
# 4 -11.7118 5.5213 -6.8726 48.3622 -15.3931 7.5622
# 5 17.1019 8.2823 5.7879 -15.3931 34.1121 -8.8410
# 6 -8.9309 3.1015 -1.2414 7.5622 -8.8410 46.3066
#
#
#
# Elastic Compliance Matrix: (Units=1/GPa)
#
#
# Indices 1 2 3 4 5 6 
#
# 1 0.011187 -0.001451 -0.000918 0.001203 -0.004240 0.001224
# 2 -0.001451 0.009655 -0.002776 -0.002491 -0.002550 -0.001081
# 3 -0.000918 -0.002776 0.012695 0.001837 -0.000188 0.000013
# 4 0.001203 -0.002491 0.001837 0.025148 0.010615 -0.001632
# 5 -0.004240 -0.002550 -0.000188 0.010615 0.038151 0.004898
# 6 0.001224 -0.001081 0.000013 -0.001632 0.004898 0.023106
#
#
# Mechanical properties :
#
#
# Convention : Reuss Voigt Hill
#
# Bulk Modulus (GPa) = 43.01643 47.37773 45.19708
# Shear Modulus (GPa) = 36.23696 42.19985 39.21840
#
# Velocity S-wave (km/s) = 3.70397 3.99712 3.85333
# Velocity P-wave (km/s) = 5.88036 6.26418 6.07530
#
# Compressibility (1/GPa) = 0.02324693
#
# Stress axis : x y z
#
# Youngs Moduli (GPa) = 89.39122 103.57652 78.76862
#
# Poissons Ratio (x) = 0.15031 0.07232
# Poissons Ratio (y) = 0.12972 0.21864
# Poissons Ratio (z) = 0.08207 0.28749
#
# Static dielectric constant tensor:
#      x y z
#    x 2.069560 -0.032230 0.011810 
#    y -0.032230 2.186330 -0.005570 
#    z 0.011810 -0.005570 2.190690 
# 
# From -- ./inp_files/281460.got.cif
#   From: 2010.05.17/outbox.cif.g08.bks.cpg/sg2_141_cif.got.tgz:281460.got - 2010.06.03 11:33:40.
