data_PCOD9010899
_publ_section_title
;
Structure prediction by ZEFSAII (Michael W. Deem and Ramdas Pophale) SiO2 
 PCOD9010899
Probable space group: P -1
;
_chemical_formula_sum "Si O2"
_cell_formula_units_Z 12
_cell_length_a 5.006698
_cell_length_b 13.414539
_cell_length_c 9.246330
_cell_angle_alpha 53.429414
_cell_angle_beta 62.193731
_cell_angle_gamma 68.174674
_cell_volume 437.289122
_symmetry_space_group_name_H-M "P -1"
_symmetry_group_IT_number 2
_symmetry_cell_setting 'triclinic'
loop_
_space_group_symop_operation_xyz
x,y,z
-x,-y,-z
loop_
_atom_site_type_symbol
_atom_site_label
_atom_site_fract_x
_atom_site_fract_y
_atom_site_fract_z
Si Si1 0.659428 0.170037 0.892018
Si Si2 0.234956 0.677568 0.979475
Si Si3 0.194976 0.887174 0.628483
Si Si4 0.504341 0.367815 0.528119
Si Si5 0.839957 0.598202 0.711219
Si Si6 0.675413 0.952911 0.267904
O O1 0.469137 0.254171 0.746289
O O2 0.991918 0.114346 0.795085
O O3 0.720633 0.262009 0.928579
O O4 0.539018 0.045467 0.094635
O O5 0.047942 0.772655 0.831380
O O6 0.564167 0.651456 0.839956
O O7 0.099778 0.548973 0.139232
O O8 0.468895 0.857021 0.471292
O O9 0.305416 0.949024 0.692178
O O10 0.000000 0.000000 0.500000
O O11 0.500000 0.500000 0.500000
O O12 0.267724 0.391426 0.437133
O O13 0.850582 0.342995 0.401705
#
# Coordination Sequence:
#
# PCOD9010899 Si02
#       6
#     2   2   2   2   2   2
#     4  10  21  43  67  96 130 175 223 281 333 395
#     4  10  23  43  66  97 133 177 224 280 333 403
#     4  10  21  40  64  95 128 172 220 273 337 396
#     4  12  25  45  71 100 138 177 226 278 338 397
#     4  11  26  47  68 101 138 181 224 274 338 404
#     4   9  21  42  64  92 131 170 224 272 335 396
#
# _framework density 27.441800000000001
#
# number of rings (size 3 to 8) (size 9 to 14) (size 15 to 20)
#    0.000    1.667    1.667    1.500    2.333    4.000 
#    6.000    4.167    0.000    0.000    0.000    0.000 
#    0.000    0.000    0.000    0.000    0.000    0.000 
#
# Total GULP energy -67346.027712 kJ/mol
# GULP energy per Si atom -5612.168976 kJ/mol
# Density = 2.737934 g / cm^3
# Si number density = 27.441800 Si / 1000 Ang^3
#
#
#
# Elastic Constant Matrix: (Units=GPa)
#
#
# Indices 1 2 3 4 5 6 
#
# 1 99.7143 11.7065 56.6053 -4.8179 10.4491 6.7862
# 2 11.7065 108.5948 60.8200 3.0625 11.3138 -5.3345
# 3 56.6053 60.8200 231.0617 -42.3170 28.9267 1.7214
# 4 -4.8179 3.0625 -42.3170 73.9344 -5.8008 4.8855
# 5 10.4491 11.3138 28.9267 -5.8008 43.9684 1.0398
# 6 6.7862 -5.3345 1.7214 4.8855 1.0398 41.2407
#
#
#
# Elastic Compliance Matrix: (Units=1/GPa)
#
#
# Indices 1 2 3 4 5 6 
#
# 1 0.011891 0.000500 -0.003086 -0.000985 -0.001016 -0.001621
# 2 0.000500 0.011387 -0.003473 -0.002642 -0.001157 0.001878
# 3 -0.003086 -0.003473 0.007008 0.003801 -0.002467 -0.000622
# 4 -0.000985 -0.002642 0.003801 0.015939 0.000569 -0.002241
# 5 -0.001016 -0.001157 -0.002467 0.000569 0.024995 -0.000577
# 6 -0.001621 0.001878 -0.000622 -0.002241 -0.000577 0.025063
#
#
# Mechanical properties :
#
#
# Convention : Reuss Voigt Hill
#
# Bulk Modulus (GPa) = 55.03881 77.51492 66.27686
# Shear Modulus (GPa) = 43.68534 52.51130 48.09832
#
# Velocity S-wave (km/s) = 3.99422 4.37916 4.19111
# Velocity P-wave (km/s) = 6.43210 7.34015 6.90107
#
# Compressibility (1/GPa) = 0.01816900
#
# Stress axis : x y z
#
# Youngs Moduli (GPa) = 84.09839 87.82070 142.70376
#
# Poissons Ratio (x) = -0.04395 0.44035
# Poissons Ratio (y) = -0.04208 0.49557
# Poissons Ratio (z) = 0.25951 0.30498
#
# Static dielectric constant tensor:
#      x y z
#    x 2.095520 -0.070860 0.023820 
#    y -0.070860 2.216600 -0.005230 
#    z 0.023820 -0.005230 2.201510 
# 
# From -- ./inp_files/20467.got.cif
#   From: 2010.05.17/outbox.cif.g08.bks.cpg/sg2_11_cif.got.tgz:20467.got - 2010.06.03 11:33:40.
