data_PCOD9010575
_publ_section_title
;
Structure prediction by ZEFSAII (Michael W. Deem and Ramdas Pophale) SiO2 
 PCOD9010575
Probable space group: P -1
;
_chemical_formula_sum "Si O2"
_cell_formula_units_Z 16
_cell_length_a 6.768132
_cell_length_b 15.419308
_cell_length_c 13.825011
_cell_angle_alpha 36.251893
_cell_angle_beta 118.280572
_cell_angle_gamma 123.489866
_cell_volume 710.311212
_symmetry_space_group_name_H-M "P -1"
_symmetry_group_IT_number 2
_symmetry_cell_setting 'triclinic'
loop_
_space_group_symop_operation_xyz
x,y,z
-x,-y,-z
loop_
_atom_site_type_symbol
_atom_site_label
_atom_site_fract_x
_atom_site_fract_y
_atom_site_fract_z
Si Si1 0.154432 0.284158 0.423010
Si Si2 0.659377 0.398122 0.451028
Si Si3 0.850953 0.323668 0.143601
Si Si4 0.314023 0.164105 0.144897
Si Si5 0.188091 0.834549 0.036475
Si Si6 0.991301 0.945012 0.658212
Si Si7 0.173088 0.514503 0.385531
Si Si8 0.626297 0.053464 0.820001
O O1 0.415252 0.377921 0.356984
O O2 0.153951 0.369013 0.446333
O O3 0.940060 0.289639 0.300584
O O4 0.140236 0.107807 0.594272
O O5 0.681224 0.479340 0.487950
O O6 0.652927 0.223953 0.631769
O O7 0.900727 0.491366 0.371389
O O8 0.572006 0.290917 0.096776
O O9 0.919380 0.202697 0.197575
O O10 0.000000 0.500000 0.000000
O O11 0.252212 0.098994 0.298653
O O12 0.327284 0.042632 0.173946
O O13 0.079886 0.207055 0.025929
O O14 0.261645 0.679597 0.203757
O O15 0.201288 0.909241 0.079537
O O16 0.379338 0.953185 0.904677
O O17 0.000000 0.000000 0.500000
#
# Coordination Sequence:
#
# PCOD9010575 Si02
#       8
#     2   2   2   2   2   2   2   2
#     4  11  23  41  68  90 129 174 213 274 332 387
#     4  10  21  40  63  95 132 170 218 278 320 410
#     4  11  28  44  64  98 133 173 230 278 330 401
#     4  12  23  41  72  93 136 182 222 274 343 402
#     4  10  23  40  65 103 141 177 217 283 332 418
#     4  10  25  47  67  96 127 171 234 283 334 397
#     4  10  23  38  63  99 129 168 226 267 337 392
#     4  10  22  42  67 101 139 175 227 271 347 405
#
# _framework density 22.525337
#
# number of rings (size 3 to 8) (size 9 to 14) (size 15 to 20)
#    0.000    1.500    0.000    3.750    5.250    4.500 
#    0.000    7.500    0.000    0.000    0.000    0.000 
#    0.000    0.000    0.000    0.000    0.000    0.000 
#
# Total GULP energy -89296.891627 kJ/mol
# GULP energy per Si atom -5581.055727 kJ/mol
# Density = 2.247407 g / cm^3
# Si number density = 22.525337 Si / 1000 Ang^3
#
#
#
# Elastic Constant Matrix: (Units=GPa)
#
#
# Indices 1 2 3 4 5 6 
#
# 1 80.8670 49.2694 21.4036 5.2412 -13.3645 2.9305
# 2 49.2694 129.0507 40.4358 -16.2983 8.5378 4.4405
# 3 21.4036 40.4358 91.7588 -10.8883 -11.6486 -4.1706
# 4 5.2412 -16.2983 -10.8883 30.2357 2.3233 4.5273
# 5 -13.3645 8.5378 -11.6486 2.3233 24.8351 0.9110
# 6 2.9305 4.4405 -4.1706 4.5273 0.9110 53.5279
#
#
#
# Elastic Compliance Matrix: (Units=1/GPa)
#
#
# Indices 1 2 3 4 5 6 
#
# 1 0.022868 -0.011558 0.000668 -0.011372 0.017641 0.000421
# 2 -0.011558 0.016143 -0.005197 0.010252 -0.015103 -0.001721
# 3 0.000668 -0.005197 0.014360 0.001399 0.008705 0.001247
# 4 -0.011372 0.010252 0.001399 0.042586 -0.012844 -0.003502
# 5 0.017641 -0.015103 0.008705 -0.012844 0.060198 0.001027
# 6 0.000421 -0.001721 0.001247 -0.003502 0.001027 0.019177
#
#
# Mechanical properties :
#
#
# Convention : Reuss Voigt Hill
#
# Bulk Modulus (GPa) = 47.17333 58.21046 52.69190
# Shear Modulus (GPa) = 23.30224 34.42426 28.86325
#
# Velocity S-wave (km/s) = 3.21984 3.91352 3.58350
# Velocity P-wave (km/s) = 5.90008 6.80582 6.36907
#
# Compressibility (1/GPa) = 0.02119842
#
# Stress axis : x y z
#
# Youngs Moduli (GPa) = 43.72866 61.94631 69.63751
#
# Poissons Ratio (x) = 0.71597 -0.04654
# Poissons Ratio (y) = 0.50541 0.36189
# Poissons Ratio (z) = -0.02922 0.32192
#
# Static dielectric constant tensor:
#      x y z
#    x 1.825340 0.019190 0.029360 
#    y 0.019190 1.861620 0.059930 
#    z 0.029360 0.059930 1.856990 
# 
# From -- ./inp_files/484283.got.cif
#   From: 2010.05.17/outbox.cif.g08.bks.cpg/sg2_243_cif.got.tgz:484283.got - 2010.06.03 11:33:40.
