data_PCOD9010673
_publ_section_title
;
Structure prediction by ZEFSAII (Michael W. Deem and Ramdas Pophale) SiO2 
 PCOD9010673
Probable space group: P -1
;
_chemical_formula_sum "Si O2"
_cell_formula_units_Z 14
_cell_length_a 10.704906
_cell_length_b 10.593373
_cell_length_c 8.850530
_cell_angle_alpha 122.744293
_cell_angle_beta 87.768985
_cell_angle_gamma 62.885091
_cell_volume 694.627900
_symmetry_space_group_name_H-M "P -1"
_symmetry_group_IT_number 2
_symmetry_cell_setting 'triclinic'
loop_
_space_group_symop_operation_xyz
x,y,z
-x,-y,-z
loop_
_atom_site_type_symbol
_atom_site_label
_atom_site_fract_x
_atom_site_fract_y
_atom_site_fract_z
Si Si1 0.081586 0.491485 0.252623
Si Si2 0.671515 0.525200 0.954314
Si Si3 0.156099 0.833886 0.813822
Si Si4 0.576389 0.176824 0.037119
Si Si5 0.889670 0.187454 0.540319
Si Si6 0.217949 0.480298 0.732306
Si Si7 0.319172 0.221795 0.298515
O O1 0.218111 0.416222 0.076695
O O2 0.036956 0.696444 0.415779
O O3 0.159925 0.365315 0.314393
O O4 0.941599 0.490103 0.200813
O O5 0.506735 0.669098 0.987768
O O6 0.746308 0.328791 0.744134
O O7 0.694207 0.516507 0.125316
O O8 0.292503 0.828244 0.883211
O O9 0.154750 0.848775 0.642842
O O10 0.179043 0.644646 0.731190
O O11 0.000000 0.000000 0.000000
O O12 0.446869 0.219245 0.191803
O O13 0.642789 0.978742 0.837052
O O14 0.000000 0.000000 0.500000
O O15 0.311930 0.296070 0.512583
#
# Coordination Sequence:
#
# PCOD9010673 Si02
#       7
#     2   2   2   2   2   2   2
#     4   9  20  39  63  89 126 164 205 259 305 369
#     4   9  22  40  61  91 127 170 205 249 317 362
#     4  12  25  39  67  97 118 165 214 259 313 372
#     4  10  23  43  60  88 132 165 206 254 316 377
#     4  10  22  42  60  93 130 163 207 255 321 361
#     4  12  21  38  66  95 125 162 214 258 305 365
#     4  10  21  40  64  87 124 171 208 255 309 370
#
# _framework density 20.154675999999998
#
# number of rings (size 3 to 8) (size 9 to 14) (size 15 to 20)
#    0.857    0.857    1.429    2.571    2.000    3.429 
#    5.143    1.429    0.000    0.000    0.000    0.000 
#    0.000    0.000    0.000    0.000    0.000    0.000 
#
# Total GULP energy -78171.181473 kJ/mol
# GULP energy per Si atom -5583.655819 kJ/mol
# Density = 2.010880 g / cm^3
# Si number density = 20.154676 Si / 1000 Ang^3
#
#
#
# Elastic Constant Matrix: (Units=GPa)
#
#
# Indices 1 2 3 4 5 6 
#
# 1 79.3559 38.7730 38.6874 5.4486 19.3175 -22.1783
# 2 38.7730 146.3850 67.6910 -8.1350 4.5207 -37.5637
# 3 38.6874 67.6910 121.7800 -22.9566 3.0119 -22.7359
# 4 5.4486 -8.1350 -22.9566 35.9121 -1.8512 4.2046
# 5 19.3175 4.5207 3.0119 -1.8512 22.5647 -6.7336
# 6 -22.1783 -37.5637 -22.7359 4.2046 -6.7336 23.3369
#
#
#
# Elastic Compliance Matrix: (Units=1/GPa)
#
#
# Indices 1 2 3 4 5 6 
#
# 1 0.024633 0.000205 -0.006898 -0.010617 -0.016883 0.014060
# 2 0.000205 0.013454 -0.004477 -0.001876 0.003165 0.018741
# 3 -0.006898 -0.004477 0.014648 0.009642 0.005768 0.000436
# 4 -0.010617 -0.001876 0.009642 0.036559 0.008866 -0.007744
# 5 -0.016883 0.003165 0.005768 0.008866 0.061305 0.010761
# 6 0.014060 0.018741 0.000436 -0.007744 0.010761 0.091304
#
#
# Mechanical properties :
#
#
# Convention : Reuss Voigt Hill
#
# Bulk Modulus (GPa) = 32.90039 70.86929 51.88484
# Shear Modulus (GPa) = 18.22331 29.85405 24.03868
#
# Velocity S-wave (km/s) = 3.01021 3.85287 3.45731
# Velocity P-wave (km/s) = 5.33303 7.41835 6.46038
#
# Compressibility (1/GPa) = 0.03039478
#
# Stress axis : x y z
#
# Youngs Moduli (GPa) = 40.59631 74.32641 68.27048
#
# Poissons Ratio (x) = -0.01521 0.47093
# Poissons Ratio (y) = -0.00831 0.30562
# Poissons Ratio (z) = 0.28003 0.33273
#
# Static dielectric constant tensor:
#      x y z
#    x 1.733980 0.025500 -0.017760 
#    y 0.025500 1.710320 0.003060 
#    z -0.017760 0.003060 1.699550 
# 
# From -- ./inp_files/261126.got.cif
#   From: 2010.05.17/outbox.cif.g08.bks.cpg/sg2_131_cif.got.tgz:261126.got - 2010.06.03 11:33:40.
