data_PCOD9010953
_publ_section_title
;
Structure prediction by ZEFSAII (Michael W. Deem and Ramdas Pophale) SiO2 
 PCOD9010953
Probable space group: P -1
;
_chemical_formula_sum "Si O2"
_cell_formula_units_Z 16
_cell_length_a 16.944051
_cell_length_b 8.266725
_cell_length_c 8.121850
_cell_angle_alpha 99.915382
_cell_angle_beta 131.549314
_cell_angle_gamma 50.066859
_cell_volume 585.663481
_symmetry_space_group_name_H-M "P -1"
_symmetry_group_IT_number 2
_symmetry_cell_setting 'triclinic'
loop_
_space_group_symop_operation_xyz
x,y,z
-x,-y,-z
loop_
_atom_site_type_symbol
_atom_site_label
_atom_site_fract_x
_atom_site_fract_y
_atom_site_fract_z
Si Si1 0.771356 0.164953 0.602565
Si Si2 0.490347 0.669856 0.312122
Si Si3 0.307095 0.547156 0.007781
Si Si4 0.184289 0.132151 0.112352
Si Si5 0.170892 0.408395 0.918630
Si Si6 0.984573 0.944640 0.286844
Si Si7 0.376351 0.239111 0.761857
Si Si8 0.820467 0.816740 0.428524
O O1 0.637936 0.415410 0.545477
O O2 0.847068 0.945417 0.787298
O O3 0.729317 0.087054 0.380172
O O4 0.881793 0.169038 0.671562
O O5 0.361555 0.897339 0.283235
O O6 0.548093 0.741721 0.276093
O O7 0.410527 0.589298 0.125809
O O8 0.311353 0.378722 0.097013
O O9 0.158358 0.791182 0.922428
O O10 0.295567 0.467656 0.802764
O O11 0.073692 0.174158 0.828852
O O12 0.161517 0.346967 0.078156
O O13 0.207649 0.231544 0.797396
O O14 0.000083 0.649150 0.669061
O O15 0.000000 0.000000 0.500000
O O16 0.249952 0.240700 0.554142
O O17 0.500000 0.000000 0.000000
#
# Coordination Sequence:
#
# PCOD9010953 Si02
#       8
#     2   2   2   2   2   2   2   2
#     4  12  24  44  64  97 137 176 227 270 338 405
#     4  11  24  42  64  95 134 183 220 274 334 402
#     4  10  21  40  64  97 129 169 219 279 332 396
#     4  11  26  42  65  95 135 182 221 277 332 402
#     4  10  21  42  67  94 135 168 229 276 336 391
#     4  11  23  41  67  98 128 172 224 279 335 391
#     4  11  22  38  65 101 135 170 223 279 339 397
#     4  10  22  39  67  98 128 176 219 284 330 398
#
# _framework density 27.319443
#
# number of rings (size 3 to 8) (size 9 to 14) (size 15 to 20)
#    0.000    1.250    1.250    4.875    5.250    3.500 
#    0.000    3.750    0.000    0.000    0.000    0.000 
#    0.000    0.000    0.000    0.000    0.000    0.000 
#
# Total GULP energy -89350.643766 kJ/mol
# GULP energy per Si atom -5584.415235 kJ/mol
# Density = 2.725726 g / cm^3
# Si number density = 27.319443 Si / 1000 Ang^3
#
#
#
# Elastic Constant Matrix: (Units=GPa)
#
#
# Indices 1 2 3 4 5 6 
#
# 1 183.2815 -5.1283 22.2542 4.2522 1.5279 41.0138
# 2 -5.1283 67.0649 6.7518 -3.8234 14.3436 4.1610
# 3 22.2542 6.7518 68.3866 -6.3266 -1.0586 14.9683
# 4 4.2522 -3.8234 -6.3266 30.7642 7.5033 2.9665
# 5 1.5279 14.3436 -1.0586 7.5033 43.2459 -6.4084
# 6 41.0138 4.1610 14.9683 2.9665 -6.4084 49.4204
#
#
#
# Elastic Compliance Matrix: (Units=1/GPa)
#
#
# Indices 1 2 3 4 5 6 
#
# 1 0.006926 0.001324 -0.001171 -0.000109 -0.001538 -0.005697
# 2 0.001324 0.017005 -0.001156 0.003678 -0.006841 -0.003288
# 3 -0.001171 -0.001156 0.016389 0.003908 -0.000473 -0.004191
# 4 -0.000109 0.003678 0.003908 0.036199 -0.008086 -0.004624
# 5 -0.001538 -0.006841 -0.000473 -0.008086 0.027739 0.006078
# 6 -0.005697 -0.003288 -0.004191 -0.004624 0.006078 0.027574
#
#
# Mechanical properties :
#
#
# Convention : Reuss Voigt Hill
#
# Bulk Modulus (GPa) = 26.10038 40.72094 33.41066
# Shear Modulus (GPa) = 34.10397 44.34313 39.22355
#
# Velocity S-wave (km/s) = 3.53702 4.03319 3.79322
# Velocity P-wave (km/s) = 5.12398 6.05199 5.60722
#
# Compressibility (1/GPa) = 0.03831362
#
# Stress axis : x y z
#
# Youngs Moduli (GPa) = 144.39306 58.80534 61.01479
#
# Poissons Ratio (x) = -0.07783 0.07147
# Poissons Ratio (y) = -0.19112 0.07051
# Poissons Ratio (z) = 0.16913 0.06795
#
# Static dielectric constant tensor:
#      x y z
#    x 2.119340 0.027580 -0.003200 
#    y 0.027580 2.214050 0.098560 
#    z -0.003200 0.098560 2.296690 
# 
# From -- ./inp_files/205914.got.cif
#   From: 2010.05.17/outbox.cif.g08.bks.cpg/sg2_103_cif.got.tgz:205914.got - 2010.06.03 11:33:40.
