data_PCOD9010473
_publ_section_title
;
Structure prediction by ZEFSAII (Michael W. Deem and Ramdas Pophale) SiO2 
 PCOD9010473
Probable space group: P -1
;
_chemical_formula_sum "Si O2"
_cell_formula_units_Z 16
_cell_length_a 8.386775
_cell_length_b 12.734456
_cell_length_c 13.203784
_cell_angle_alpha 42.210949
_cell_angle_beta 59.235203
_cell_angle_gamma 40.948680
_cell_volume 617.251753
_symmetry_space_group_name_H-M "P -1"
_symmetry_group_IT_number 2
_symmetry_cell_setting 'triclinic'
loop_
_space_group_symop_operation_xyz
x,y,z
-x,-y,-z
loop_
_atom_site_type_symbol
_atom_site_label
_atom_site_fract_x
_atom_site_fract_y
_atom_site_fract_z
Si Si1 0.603089 0.625509 0.058355
Si Si2 0.092153 0.238251 0.733821
Si Si3 0.781024 0.168955 0.526975
Si Si4 0.862013 0.799405 0.779757
Si Si5 0.310406 0.971944 0.047461
Si Si6 0.187230 0.119331 0.500640
Si Si7 0.328517 0.334848 0.436623
Si Si8 0.196580 0.880576 0.833673
O O1 0.454895 0.734712 0.134203
O O2 0.844152 0.382632 0.168941
O O3 0.734830 0.718604 0.924676
O O4 0.416609 0.705324 0.964201
O O5 0.219599 0.317470 0.586850
O O6 0.081727 0.107122 0.749650
O O7 0.840775 0.439175 0.715043
O O8 0.238192 0.078180 0.886823
O O9 0.554734 0.303471 0.431311
O O10 0.890772 0.249953 0.498295
O O11 0.755308 0.020032 0.701576
O O12 0.000000 0.000000 0.500000
O O13 0.774654 0.857450 0.647638
O O14 0.040621 0.100301 0.094325
O O15 0.500000 0.000000 0.000000
O O16 0.301975 0.200111 0.467247
O O17 0.272894 0.906205 0.678612
#
# Coordination Sequence:
#
# PCOD9010473 Si02
#       8
#     2   2   2   2   2   2   2   2
#     4  10  22  42  67  89 133 175 206 270 325 388
#     4   9  20  40  61  90 122 172 199 263 330 371
#     4  10  22  37  59  89 124 169 206 260 315 368
#     4  10  22  41  67  95 131 172 218 262 325 377
#     4  11  24  38  66  92 128 167 214 270 324 389
#     4  10  23  40  66  96 124 172 221 263 315 388
#     4  10  21  40  63  91 134 159 213 267 319 382
#     4  10  22  41  65  95 128 169 217 265 331 387
#
# _framework density 25.921354000000001
#
# number of rings (size 3 to 8) (size 9 to 14) (size 15 to 20)
#    0.000    2.000    0.000    3.750    5.250    8.500 
#    0.000    3.125    2.750    0.000    0.000    0.000 
#    0.000    0.000    0.000    0.000    0.000    0.000 
#
# Total GULP energy -89077.204390 kJ/mol
# GULP energy per Si atom -5567.325274 kJ/mol
# Density = 2.586236 g / cm^3
# Si number density = 25.921354 Si / 1000 Ang^3
#
#
#
# Elastic Constant Matrix: (Units=GPa)
#
#
# Indices 1 2 3 4 5 6 
#
# 1 165.2223 40.4756 35.3641 3.0377 15.3759 -33.6612
# 2 40.4756 53.5835 18.0521 -20.2204 16.0728 -25.2789
# 3 35.3641 18.0521 56.4189 5.8973 -3.0288 -2.2540
# 4 3.0377 -20.2204 5.8973 41.3308 -6.1762 -1.4415
# 5 15.3759 16.0728 -3.0288 -6.1762 49.8269 8.3674
# 6 -33.6612 -25.2789 -2.2540 -1.4415 8.3674 39.5056
#
#
#
# Elastic Compliance Matrix: (Units=1/GPa)
#
#
# Indices 1 2 3 4 5 6 
#
# 1 0.009576 0.001163 -0.006305 0.000311 -0.005301 0.009678
# 2 0.001163 0.083582 -0.031277 0.042286 -0.034307 0.061499
# 3 -0.006305 -0.031277 0.033356 -0.018102 0.016458 -0.027630
# 4 0.000311 0.042286 -0.018102 0.046388 -0.014294 0.031010
# 5 -0.005301 -0.034307 0.016458 -0.014294 0.037717 -0.034040
# 6 0.009678 0.061499 -0.027630 0.031010 -0.034040 0.079676
#
#
# Mechanical properties :
#
#
# Convention : Reuss Voigt Hill
#
# Bulk Modulus (GPa) = 18.63022 51.44539 35.03781
# Shear Modulus (GPa) = 13.12247 38.22153 25.67200
#
# Velocity S-wave (km/s) = 2.25242 3.84411 3.15045
# Velocity P-wave (km/s) = 3.73729 6.29228 5.17494
#
# Compressibility (1/GPa) = 0.05367622
#
# Stress axis : x y z
#
# Youngs Moduli (GPa) = 104.42397 11.96432 29.97938
#
# Poissons Ratio (x) = -0.01392 0.18903
# Poissons Ratio (y) = -0.12150 0.93768
# Poissons Ratio (z) = 0.65841 0.37421
#
# Static dielectric constant tensor:
#      x y z
#    x 2.053430 -0.148150 -0.034940 
#    y -0.148150 1.897120 0.025120 
#    z -0.034940 0.025120 2.080090 
# 
# From -- ./inp_files/503787.got.cif
#   From: 2010.05.17/outbox.cif.g08.bks.cpg/sg2_252_cif.got.tgz:503787.got - 2010.06.03 11:33:40.
