data_PCOD9010560
_publ_section_title
;
Structure prediction by ZEFSAII (Michael W. Deem and Ramdas Pophale) SiO2 
 PCOD9010560
Probable space group: P -1
;
_chemical_formula_sum "Si O2"
_cell_formula_units_Z 16
_cell_length_a 12.743950
_cell_length_b 11.816002
_cell_length_c 12.261686
_cell_angle_alpha 84.662598
_cell_angle_beta 144.905631
_cell_angle_gamma 67.500619
_cell_volume 632.093916
_symmetry_space_group_name_H-M "P -1"
_symmetry_group_IT_number 2
_symmetry_cell_setting 'triclinic'
loop_
_space_group_symop_operation_xyz
x,y,z
-x,-y,-z
loop_
_atom_site_type_symbol
_atom_site_label
_atom_site_fract_x
_atom_site_fract_y
_atom_site_fract_z
Si Si1 0.317236 0.767900 0.342325
Si Si2 0.747309 0.519413 0.922688
Si Si3 0.305304 0.625073 0.714716
Si Si4 0.646895 0.042107 0.169179
Si Si5 0.410689 0.163188 0.201461
Si Si6 0.533653 0.686731 0.179397
Si Si7 0.988966 0.170611 0.143854
Si Si8 0.337622 0.937489 0.174267
O O1 0.583889 0.589617 0.660078
O O2 0.424230 0.828818 0.367270
O O3 0.181306 0.765691 0.122376
O O4 0.016976 0.926240 0.149562
O O5 0.504308 0.596599 0.799741
O O6 0.812625 0.618917 0.991248
O O7 0.012671 0.294712 0.170769
O O8 0.005029 0.845241 0.469040
O O9 0.500000 0.500000 0.000000
O O10 0.227543 0.536368 0.608784
O O11 0.563641 0.093580 0.219524
O O12 0.521750 0.216005 0.985997
O O13 0.500000 0.000000 0.000000
O O14 0.299112 0.090848 0.125644
O O15 0.677913 0.040974 0.527882
O O16 0.237715 0.765170 0.962478
O O17 0.551992 0.777696 0.277118
#
# Coordination Sequence:
#
# PCOD9010560 Si02
#       8
#     2   2   2   2   2   2   2   2
#     4  10  21  41  70  87 124 169 221 252 320 392
#     4  11  23  41  67  96 124 167 218 258 315 384
#     4  11  24  42  68  96 129 175 221 265 321 386
#     4  12  24  40  64  98 132 173 217 265 326 384
#     4  12  24  40  62  94 135 159 210 272 322 374
#     4  10  21  43  64  91 130 172 217 259 317 389
#     4  10  23  42  65  95 126 168 211 267 317 379
#     4  10  21  40  63  95 123 171 204 266 322 374
#
# _framework density 25.312691999999998
#
# number of rings (size 3 to 8) (size 9 to 14) (size 15 to 20)
#    0.000    1.250    1.250    6.375    0.000    4.000 
#    2.250    3.750    0.000    0.000    0.000    0.000 
#    0.000    0.000    0.000    0.000    0.000    0.000 
#
# Total GULP energy -89489.673008 kJ/mol
# GULP energy per Si atom -5593.104563 kJ/mol
# Density = 2.525508 g / cm^3
# Si number density = 25.312692 Si / 1000 Ang^3
#
#
#
# Elastic Constant Matrix: (Units=GPa)
#
#
# Indices 1 2 3 4 5 6 
#
# 1 132.4427 50.5515 30.7196 6.5056 -27.5825 6.7035
# 2 50.5515 156.6096 1.8360 8.0931 -14.6258 22.7439
# 3 30.7196 1.8360 20.4731 2.5623 -10.8610 4.8882
# 4 6.5056 8.0931 2.5623 36.2840 0.4207 -9.7114
# 5 -27.5825 -14.6258 -10.8610 0.4207 30.1202 -0.3732
# 6 6.7035 22.7439 4.8882 -9.7114 -0.3732 42.5625
#
#
#
# Elastic Compliance Matrix: (Units=1/GPa)
#
#
# Indices 1 2 3 4 5 6 
#
# 1 0.014595 -0.004496 -0.020046 0.000435 0.003979 0.002540
# 2 -0.004496 0.009156 0.009889 -0.003615 0.003870 -0.006111
# 3 -0.020046 0.009889 0.093402 -0.009408 0.020072 -0.014825
# 4 0.000435 -0.003615 -0.009408 0.031725 -0.005067 0.010138
# 5 0.003979 0.003870 0.020072 -0.005067 0.045960 -0.005753
# 6 0.002540 -0.006111 -0.014825 0.010138 -0.005753 0.030326
#
#
# Mechanical properties :
#
#
# Convention : Reuss Voigt Hill
#
# Bulk Modulus (GPa) = 11.38327 52.85995 32.12161
# Shear Modulus (GPa) = 17.62094 36.88788 27.25441
#
# Velocity S-wave (km/s) = 2.64129 3.82159 3.28488
# Velocity P-wave (km/s) = 3.71601 6.35616 5.20622
#
# Compressibility (1/GPa) = 0.08784820
#
# Stress axis : x y z
#
# Youngs Moduli (GPa) = 68.51760 109.21402 10.70635
#
# Poissons Ratio (x) = 0.49100 0.21462
# Poissons Ratio (y) = 0.30804 -0.10588
# Poissons Ratio (z) = 1.37352 -1.08006
#
# Static dielectric constant tensor:
#      x y z
#    x 1.930760 -0.013460 0.014520 
#    y -0.013460 2.228170 0.021810 
#    z 0.014520 0.021810 1.982970 
# 
# From -- ./inp_files/428251.got.cif
#   From: 2010.05.17/outbox.cif.g08.bks.cpg/sg2_215_cif.got.tgz:428251.got - 2010.06.03 11:33:40.
