data_PCOD9010905
_publ_section_title
;
Structure prediction by ZEFSAII (Michael W. Deem and Ramdas Pophale) SiO2 
 PCOD9010905
Probable space group: P -1
;
_chemical_formula_sum "Si O2"
_cell_formula_units_Z 13
_cell_length_a 7.020221
_cell_length_b 13.391492
_cell_length_c 9.088570
_cell_angle_alpha 62.559173
_cell_angle_beta 140.253700
_cell_angle_gamma 120.378543
_cell_volume 467.272813
_symmetry_space_group_name_H-M "P -1"
_symmetry_group_IT_number 2
_symmetry_cell_setting 'triclinic'
loop_
_space_group_symop_operation_xyz
x,y,z
-x,-y,-z
loop_
_atom_site_type_symbol
_atom_site_label
_atom_site_fract_x
_atom_site_fract_y
_atom_site_fract_z
Si Si1 0.000000 0.500000 0.000000
Si Si2 0.794453 0.562917 0.515435
Si Si3 0.547936 0.413224 0.212728
Si Si4 0.140782 0.955493 0.310967
Si Si5 0.221747 0.781737 0.914815
Si Si6 0.262168 0.183877 0.592880
Si Si7 0.227626 0.179777 0.030894
O O1 0.879920 0.492837 0.751715
O O2 0.873608 0.358150 0.041218
O O3 0.523111 0.480163 0.305655
O O4 0.735011 0.685376 0.439999
O O5 0.106235 0.598125 0.580205
O O6 0.323103 0.291509 0.114147
O O7 0.500000 0.500000 0.000000
O O8 0.969308 0.918776 0.384751
O O9 0.500000 0.000000 0.500000
O O10 0.083400 0.065851 0.119196
O O11 0.037614 0.835091 0.238298
O O12 0.407009 0.826508 0.145149
O O13 0.472527 0.818369 0.900411
O O14 0.911465 0.819039 0.663320
#
# Coordination Sequence:
#
# PCOD9010905 Si02
#       7
#     1   2   2   2   2   2   2
#     4  10  20  38  54  84 112 154 196 224 278 340
#     4  10  22  34  56  80 117 153 184 232 282 344
#     4  11  20  36  53  80 119 154 181 232 289 341
#     4  10  17  29  52  75 110 140 185 238 291 328
#     4  10  19  32  51  78 114 141 179 234 275 333
#     4  10  19  34  52  83 112 140 185 237 286 331
#     4  10  19  31  49  82 111 144 186 235 285 337
#
# _framework density 27.821005
#
# number of rings (size 3 to 8) (size 9 to 14) (size 15 to 20)
#    0.000    1.846    4.615    1.846    0.000    3.692 
#    0.000    0.000    0.000    0.000    0.000   14.000 
#    0.000    0.154    0.000    0.000    0.000    0.000 
#
# Total GULP energy -72486.109780 kJ/mol
# GULP energy per Si atom -5575.854598 kJ/mol
# Density = 2.775768 g / cm^3
# Si number density = 27.821005 Si / 1000 Ang^3
#
#
#
# Elastic Constant Matrix: (Units=GPa)
#
#
# Indices 1 2 3 4 5 6 
#
# 1 88.3372 46.6577 25.8919 9.2114 -12.1168 -3.3951
# 2 46.6577 177.6257 83.3526 10.8454 -15.4052 26.8661
# 3 25.8919 83.3526 227.1703 19.5569 -15.9793 -0.4908
# 4 9.2114 10.8454 19.5569 72.4975 12.2013 -8.0005
# 5 -12.1168 -15.4052 -15.9793 12.2013 38.9829 -0.5936
# 6 -3.3951 26.8661 -0.4908 -8.0005 -0.5936 43.8543
#
#
#
# Elastic Compliance Matrix: (Units=1/GPa)
#
#
# Indices 1 2 3 4 5 6 
#
# 1 0.014067 -0.003894 0.000201 -0.001477 0.003428 0.003254
# 2 -0.003894 0.009016 -0.002682 -0.001046 0.001488 -0.006025
# 3 0.000201 -0.002682 0.005595 -0.001254 0.001711 0.001516
# 4 -0.001477 -0.001046 -0.001254 0.015906 -0.006314 0.003329
# 5 0.003428 0.001488 0.001711 -0.006314 0.029963 -0.001374
# 6 0.003254 -0.006025 0.001516 0.003329 -0.001374 0.027352
#
#
# Mechanical properties :
#
#
# Convention : Reuss Voigt Hill
#
# Bulk Modulus (GPa) = 62.78843 89.43752 76.11298
# Shear Modulus (GPa) = 41.68093 53.54899 47.61496
#
# Velocity S-wave (km/s) = 3.87483 4.39198 4.14149
# Velocity P-wave (km/s) = 6.52969 7.61161 7.09131
#
# Compressibility (1/GPa) = 0.01592650
#
# Stress axis : x y z
#
# Youngs Moduli (GPa) = 71.08653 110.91690 178.73120
#
# Poissons Ratio (x) = 0.43191 -0.03587
# Poissons Ratio (y) = 0.27681 0.47945
# Poissons Ratio (z) = -0.01427 0.29753
#
# Static dielectric constant tensor:
#      x y z
#    x 5.767290 -0.269240 7.979440 
#    y -0.269240 2.157700 -0.614250 
#    z 7.979440 -0.614250 16.266390 
# 
# From -- ./inp_files/79303.got.cif
#   From: 2010.05.17/outbox.cif.g08.bks.cpg/sg2_40_cif.got.tgz:79303.got - 2010.06.03 11:33:40.
