data_PCOD9010080
_publ_section_title
;
Structure prediction by ZEFSAII (Michael W. Deem and Ramdas Pophale) SiO2 
 PCOD9010080
Probable space group: P -1
;
_chemical_formula_sum "Si O2"
_cell_formula_units_Z 13
_cell_length_a 8.269976
_cell_length_b 11.705386
_cell_length_c 9.699670
_cell_angle_alpha 114.451646
_cell_angle_beta 148.155411
_cell_angle_gamma 67.301241
_cell_volume 449.829122
_symmetry_space_group_name_H-M "P -1"
_symmetry_group_IT_number 2
_symmetry_cell_setting 'triclinic'
loop_
_space_group_symop_operation_xyz
x,y,z
-x,-y,-z
loop_
_atom_site_type_symbol
_atom_site_label
_atom_site_fract_x
_atom_site_fract_y
_atom_site_fract_z
Si Si1 0.795536 0.320730 0.587524
Si Si2 0.372433 0.080186 0.144059
Si Si3 0.291000 0.652707 0.148758
Si Si4 0.187044 0.111633 0.748809
Si Si5 0.698898 0.432530 0.294916
Si Si6 0.944333 0.777750 0.705863
Si Si7 0.500000 0.000000 0.500000
O O1 0.580409 0.201315 0.363434
O O2 0.824385 0.365350 0.787546
O O3 0.682040 0.422174 0.443946
O O4 0.106647 0.252707 0.714198
O O5 0.483723 0.947836 0.084109
O O6 0.356062 0.035411 0.264150
O O7 0.124580 0.126898 0.874946
O O8 0.389075 0.519581 0.079462
O O9 0.617659 0.712828 0.434055
O O10 0.079927 0.746492 0.944199
O O11 0.000000 0.000000 0.500000
O O12 0.000000 0.500000 0.500000
O O13 0.790597 0.295203 0.230234
O O14 0.806448 0.912541 0.615498
#
# Coordination Sequence:
#
# PCOD9010080 Si02
#       7
#     2   2   2   2   2   2   1
#     4  11  21  42  67 102 135 181 241 299 356 426
#     4  10  21  40  62 101 140 187 235 290 357 436
#     4  11  24  48  72 103 143 191 243 297 360 432
#     4   9  20  40  64  95 144 186 233 282 359 431
#     4  10  24  48  72 101 140 192 243 300 363 428
#     4  11  25  47  70 106 145 186 243 294 368 431
#     4  12  22  42  70 106 146 188 230 304 366 430
#
# _framework density 28.899861000000001
#
# number of rings (size 3 to 8) (size 9 to 14) (size 15 to 20)
#    0.000    1.538    1.538    2.769    0.000    0.615 
#   24.923    3.846    0.000    0.000    0.000    0.000 
#    0.000    0.000    0.000    0.000    0.000    0.000 
#
# Total GULP energy -72381.656621 kJ/mol
# GULP energy per Si atom -5567.819740 kJ/mol
# Density = 2.883408 g / cm^3
# Si number density = 28.899861 Si / 1000 Ang^3
#
#
#
# Elastic Constant Matrix: (Units=GPa)
#
#
# Indices 1 2 3 4 5 6 
#
# 1 86.6431 39.2725 41.9137 -3.3628 -18.8885 -13.7189
# 2 39.2725 136.8836 44.7332 -23.7879 18.6440 -14.0424
# 3 41.9137 44.7332 173.1293 -24.0169 -14.9642 2.8051
# 4 -3.3628 -23.7879 -24.0169 59.0427 -1.8574 12.0535
# 5 -18.8885 18.6440 -14.9642 -1.8574 65.8287 -13.4042
# 6 -13.7189 -14.0424 2.8051 12.0535 -13.4042 44.3055
#
#
#
# Elastic Compliance Matrix: (Units=1/GPa)
#
#
# Indices 1 2 3 4 5 6 
#
# 1 0.017846 -0.004979 -0.003008 -0.003470 0.007229 0.007269
# 2 -0.004979 0.010353 -0.001414 0.003262 -0.004687 -0.000476
# 3 -0.003008 -0.001414 0.007360 0.002758 0.000810 -0.002351
# 4 -0.003470 0.003262 0.002758 0.020414 -0.002015 -0.006379
# 5 0.007229 -0.004687 0.000810 -0.002015 0.020220 0.007367
# 6 0.007269 -0.000476 -0.002351 -0.006379 0.007367 0.028784
#
#
# Mechanical properties :
#
#
# Convention : Reuss Voigt Hill
#
# Bulk Modulus (GPa) = 59.68068 72.05497 65.86783
# Shear Modulus (GPa) = 38.65019 51.88449 45.26734
#
# Velocity S-wave (km/s) = 3.66099 4.24172 3.96201
# Velocity P-wave (km/s) = 6.21017 6.99831 6.61598
#
# Compressibility (1/GPa) = 0.01675584
#
# Stress axis : x y z
#
# Youngs Moduli (GPa) = 56.03510 96.59437 135.86036
#
# Poissons Ratio (x) = 0.48093 0.40870
# Poissons Ratio (y) = 0.27899 0.19217
# Poissons Ratio (z) = 0.16857 0.13663
#
# Static dielectric constant tensor:
#      x y z
#    x 2.399940 -0.071380 0.063400 
#    y -0.071380 2.426200 0.017290 
#    z 0.063400 0.017290 2.416550 
# 
# From -- ./inp_files/180952.got.cif
#   From: 2010.05.17/outbox.cif.g08.bks.cpg/sg2_91_cif.got.tgz:180952.got - 2010.06.03 11:33:40.
