data_PCOD9010068
_publ_section_title
;
Structure prediction by ZEFSAII (Michael W. Deem and Ramdas Pophale) SiO2 
 PCOD9010068
Probable space group: P -1
;
_chemical_formula_sum "Si O2"
_cell_formula_units_Z 16
_cell_length_a 10.408584
_cell_length_b 7.574716
_cell_length_c 14.168919
_cell_angle_alpha 77.275421
_cell_angle_beta 125.982051
_cell_angle_gamma 73.466178
_cell_volume 750.747861
_symmetry_space_group_name_H-M "P -1"
_symmetry_group_IT_number 2
_symmetry_cell_setting 'triclinic'
loop_
_space_group_symop_operation_xyz
x,y,z
-x,-y,-z
loop_
_atom_site_type_symbol
_atom_site_label
_atom_site_fract_x
_atom_site_fract_y
_atom_site_fract_z
Si Si1 0.647164 0.456460 0.965219
Si Si2 0.746375 0.764532 0.893463
Si Si3 0.488296 0.561659 0.278892
Si Si4 0.925501 0.014099 0.231190
Si Si5 0.690350 0.107002 0.503610
Si Si6 0.061452 0.794988 0.116745
Si Si7 0.549763 0.086077 0.102659
Si Si8 0.489885 0.877540 0.381039
O O1 0.733614 0.557014 0.919412
O O2 0.534587 0.399970 0.848546
O O3 0.532502 0.658122 0.961494
O O4 0.809168 0.250961 0.109695
O O5 0.568222 0.929109 0.861753
O O6 0.695849 0.900156 0.760556
O O7 0.935113 0.710346 0.031325
O O8 0.613372 0.311217 0.379781
O O9 0.282068 0.651446 0.221808
O O10 0.554426 0.691608 0.354520
O O11 0.770527 0.981868 0.219112
O O12 0.095104 0.982879 0.370381
O O13 0.004810 0.862950 0.192046
O O14 0.572270 0.180276 0.541832
O O15 0.643264 0.939545 0.459554
O O16 0.000000 0.000000 0.000000
O O17 0.500000 0.000000 0.000000
#
# Coordination Sequence:
#
# PCOD9010068 Si02
#       8
#     2   2   2   2   2   2   2   2
#     4  10  23  39  68  94 127 172 210 274 321 379
#     4  10  21  40  61  98 123 165 212 268 322 369
#     4  12  23  42  64  96 135 171 213 256 337 382
#     4  12  21  42  64  97 128 165 222 265 322 377
#     4  11  25  41  64  95 133 176 210 264 322 396
#     4  12  21  35  66  97 126 166 207 271 321 388
#     4  10  22  42  65  95 131 163 219 275 321 374
#     4  11  22  41  61  90 136 167 210 263 321 385
#
# _framework density 21.312082
#
# number of rings (size 3 to 8) (size 9 to 14) (size 15 to 20)
#    0.750    0.250    6.250    0.750    0.000    2.500 
#    2.250    2.500    0.000    1.500    0.000    0.000 
#    0.000    0.000    0.000    0.000    0.000    0.000 
#
# Total GULP energy -89314.617462 kJ/mol
# GULP energy per Si atom -5582.163591 kJ/mol
# Density = 2.126357 g / cm^3
# Si number density = 21.312082 Si / 1000 Ang^3
#
#
#
# Elastic Constant Matrix: (Units=GPa)
#
#
# Indices 1 2 3 4 5 6 
#
# 1 55.9890 20.3700 28.6098 7.7545 16.5427 -13.6757
# 2 20.3700 85.9542 25.1120 30.4280 16.3687 -5.1039
# 3 28.6098 25.1120 121.0576 9.5985 28.0626 0.0630
# 4 7.7545 30.4280 9.5985 38.3672 14.5540 3.4745
# 5 16.5427 16.3687 28.0626 14.5540 30.3138 -1.4643
# 6 -13.6757 -5.1039 0.0630 3.4745 -1.4643 31.3107
#
#
#
# Elastic Compliance Matrix: (Units=1/GPa)
#
#
# Indices 1 2 3 4 5 6 
#
# 1 0.025818 -0.002947 -0.003436 0.000475 -0.009046 0.010328
# 2 -0.002947 0.017791 -0.002048 -0.013484 0.000522 0.003138
# 3 -0.003436 -0.002048 0.011383 0.003210 -0.009225 -0.002645
# 4 0.000475 -0.013484 0.003210 0.042971 -0.016946 -0.007558
# 5 -0.009046 0.000522 -0.009225 -0.016946 0.054347 0.000575
# 6 0.010328 0.003138 -0.002645 -0.007558 0.000575 0.037831
#
#
# Mechanical properties :
#
#
# Convention : Reuss Voigt Hill
#
# Bulk Modulus (GPa) = 26.22584 45.68714 35.95649
# Shear Modulus (GPa) = 22.75693 32.59227 27.67460
#
# Velocity S-wave (km/s) = 3.27126 3.91485 3.60744
# Velocity P-wave (km/s) = 5.15757 6.47445 5.85316
#
# Compressibility (1/GPa) = 0.03813034
#
# Stress axis : x y z
#
# Youngs Moduli (GPa) = 38.73206 56.20866 87.85114
#
# Poissons Ratio (x) = 0.16563 0.30190
# Poissons Ratio (y) = 0.11413 0.17989
# Poissons Ratio (z) = 0.13310 0.11510
#
# Static dielectric constant tensor:
#      x y z
#    x 1.863650 0.017110 -0.030700 
#    y 0.017110 1.825990 0.030320 
#    z -0.030700 0.030320 1.775910 
# 
# From -- ./inp_files/514329.got.cif
#   From: 2010.05.17/outbox.cif.g08.bks.cpg/sg2_258_cif.got.tgz:514329.got - 2010.06.03 11:33:40.
