data_PCOD9010007
_publ_section_title
;
Structure prediction by ZEFSAII (Michael W. Deem and Ramdas Pophale) SiO2 
 PCOD9010007
Probable space group: P -1
;
_chemical_formula_sum "Si O2"
_cell_formula_units_Z 16
_cell_length_a 12.981064
_cell_length_b 13.323097
_cell_length_c 15.581174
_cell_angle_alpha 20.401564
_cell_angle_beta 136.107800
_cell_angle_gamma 136.242153
_cell_volume 638.931856
_symmetry_space_group_name_H-M "P -1"
_symmetry_group_IT_number 2
_symmetry_cell_setting 'triclinic'
loop_
_space_group_symop_operation_xyz
x,y,z
-x,-y,-z
loop_
_atom_site_type_symbol
_atom_site_label
_atom_site_fract_x
_atom_site_fract_y
_atom_site_fract_z
Si Si1 0.773109 0.092722 0.569038
Si Si2 0.646096 0.163513 0.811195
Si Si3 0.670539 0.783206 0.415205
Si Si4 0.618329 0.659703 0.685797
Si Si5 0.994493 0.656669 0.257130
Si Si6 0.694912 0.246554 0.574712
Si Si7 0.114404 0.663410 0.868326
Si Si8 0.949433 0.241481 0.982633
O O1 0.833025 0.442608 0.326725
O O2 0.693685 0.031840 0.663697
O O3 0.675106 0.960660 0.534017
O O4 0.927676 0.961400 0.765728
O O5 0.666947 0.512881 0.566073
O O6 0.471571 0.060939 0.816230
O O7 0.660144 0.110210 0.759368
O O8 0.775044 0.077390 0.019875
O O9 0.645070 0.687645 0.577041
O O10 0.828478 0.007616 0.332740
O O11 0.438968 0.573818 0.663085
O O12 0.731023 0.460141 0.947974
O O13 0.131197 0.575640 0.460568
O O14 0.055097 0.661998 0.194193
O O15 0.000000 0.000000 0.000000
O O16 0.000000 0.500000 0.000000
O O17 0.016370 0.551357 0.817566
#
# Coordination Sequence:
#
# PCOD9010007 Si02
#       8
#     2   2   2   2   2   2   2   2
#     4  11  22  39  63  88 126 162 198 253 299 357
#     4   9  21  39  67  89 123 165 203 252 311 360
#     4  10  21  44  62  89 127 158 204 259 306 363
#     4  10  23  42  63  90 121 163 205 246 307 366
#     4  11  22  39  60  88 122 162 201 245 299 357
#     4  10  21  40  61  90 123 158 203 247 299 362
#     4  11  24  40  63  94 121 160 207 254 309 363
#     4  10  22  39  60  91 121 159 210 244 301 367
#
# _framework density 25.041793999999999
#
# number of rings (size 3 to 8) (size 9 to 14) (size 15 to 20)
#    0.000    1.750    1.250    2.250    0.000    7.000 
#    4.500    9.375    0.000    0.000    0.000    0.000 
#    0.000    0.000    0.000    0.000    0.000    0.000 
#
# Total GULP energy -89258.004245 kJ/mol
# GULP energy per Si atom -5578.625265 kJ/mol
# Density = 2.498480 g / cm^3
# Si number density = 25.041794 Si / 1000 Ang^3
#
#
#
# Elastic Constant Matrix: (Units=GPa)
#
#
# Indices 1 2 3 4 5 6 
#
# 1 80.2331 40.8027 22.0749 -8.3334 25.8057 7.5868
# 2 40.8027 138.0236 29.9640 -9.3185 14.5236 -10.0781
# 3 22.0749 29.9640 55.4790 -1.8791 28.1792 10.0097
# 4 -8.3334 -9.3185 -1.8791 46.5653 10.4638 4.4763
# 5 25.8057 14.5236 28.1792 10.4638 29.0893 8.2827
# 6 7.5868 -10.0781 10.0097 4.4763 8.2827 26.5841
#
#
#
# Elastic Compliance Matrix: (Units=1/GPa)
#
#
# Indices 1 2 3 4 5 6 
#
# 1 0.024349 -0.005854 0.011022 0.011311 -0.031921 -0.005277
# 2 -0.005854 0.010417 -0.007482 -0.001210 0.005722 0.006857
# 3 0.011022 -0.007482 0.048283 0.015879 -0.055839 -0.009438
# 4 0.011311 -0.001210 0.015879 0.032209 -0.035227 -0.004113
# 5 -0.031921 0.005722 -0.055839 -0.035227 0.126979 -0.001326
# 6 -0.005277 0.006857 -0.009438 -0.004113 -0.001326 0.046382
#
#
# Mechanical properties :
#
#
# Convention : Reuss Voigt Hill
#
# Bulk Modulus (GPa) = 12.75153 51.04653 31.89903
# Shear Modulus (GPa) = 15.65505 32.50736 24.08120
#
# Velocity S-wave (km/s) = 2.50303 3.60686 3.10440
# Velocity P-wave (km/s) = 3.66833 6.14611 5.06119
#
# Compressibility (1/GPa) = 0.07842197
#
# Stress axis : x y z
#
# Youngs Moduli (GPa) = 41.06990 95.99990 20.71127
#
# Poissons Ratio (x) = 0.56194 -0.22828
# Poissons Ratio (y) = 0.24040 0.15495
# Poissons Ratio (z) = -0.45267 0.71823
#
# Static dielectric constant tensor:
#      x y z
#    x 2.037560 0.093200 0.032210 
#    y 0.093200 2.026990 0.048820 
#    z 0.032210 0.048820 1.861680 
# 
# From -- ./inp_files/574015.got.cif
#   From: 2010.05.17/outbox.cif.g08.bks.cpg/sg2_288_cif.got.tgz:574015.got - 2010.06.03 11:33:40.
