data_PCOD9010238
_publ_section_title
;
Structure prediction by ZEFSAII (Michael W. Deem and Ramdas Pophale) SiO2 
 PCOD9010238
Probable space group: P -1
;
_chemical_formula_sum "Si O2"
_cell_formula_units_Z 16
_cell_length_a 9.040882
_cell_length_b 17.019938
_cell_length_c 5.500996
_cell_angle_alpha 90.920558
_cell_angle_beta 81.687093
_cell_angle_gamma 126.434144
_cell_volume 671.266293
_symmetry_space_group_name_H-M "P -1"
_symmetry_group_IT_number 2
_symmetry_cell_setting 'triclinic'
loop_
_space_group_symop_operation_xyz
x,y,z
-x,-y,-z
loop_
_atom_site_type_symbol
_atom_site_label
_atom_site_fract_x
_atom_site_fract_y
_atom_site_fract_z
Si Si1 0.713263 0.017373 0.574582
Si Si2 0.854845 0.672182 0.567211
Si Si3 0.225275 0.790829 0.203772
Si Si4 0.093433 0.840485 0.850470
Si Si5 0.941767 0.918964 0.212052
Si Si6 0.447293 0.614736 0.563821
Si Si7 0.478049 0.187769 0.527587
Si Si8 0.670686 0.493395 0.921066
O O1 0.708355 0.099440 0.719233
O O2 0.749466 0.052993 0.288323
O O3 0.898884 0.031750 0.620438
O O4 0.551605 0.902355 0.621876
O O5 0.648731 0.632203 0.524646
O O6 0.831699 0.599371 0.778547
O O7 0.020483 0.701574 0.346816
O O8 0.947821 0.777384 0.671644
O O9 0.378584 0.783971 0.286401
O O10 0.188846 0.792647 0.928802
O O11 0.970881 0.842481 0.084006
O O12 0.729520 0.862383 0.326768
O O13 0.000000 0.000000 0.000000
O O14 0.469573 0.714612 0.608772
O O15 0.373915 0.576543 0.304525
O O16 0.320577 0.542722 0.814841
O O17 0.500000 0.500000 0.000000
#
# Coordination Sequence:
#
# PCOD9010238 Si02
#       8
#     2   2   2   2   2   2   2   2
#     4  10  22  43  61  90 125 177 221 266 323 398
#     4  10  22  42  71  90 129 168 220 275 334 404
#     4  10  24  42  61  93 129 180 223 257 336 411
#     4  10  21  40  62  93 122 172 223 258 328 404
#     4  11  23  38  64  91 128 166 218 279 338 378
#     4  11  25  42  71 109 129 169 231 287 342 391
#     4  12  24  41  63  95 136 170 219 280 334 396
#     4  10  23  43  72 105 130 169 227 287 341 402
#
# _framework density 23.835549
#
# number of rings (size 3 to 8) (size 9 to 14) (size 15 to 20)
#    0.000    1.500    1.250    4.500   10.500    0.500 
#    9.000    1.250    0.000    0.000    0.000    0.000 
#    0.000    0.000    0.000    0.000    0.000    0.000 
#
# Total GULP energy -89294.304348 kJ/mol
# GULP energy per Si atom -5580.894022 kJ/mol
# Density = 2.378130 g / cm^3
# Si number density = 23.835549 Si / 1000 Ang^3
#
#
#
# Elastic Constant Matrix: (Units=GPa)
#
#
# Indices 1 2 3 4 5 6 
#
# 1 92.0243 16.8804 26.2078 -14.0061 22.5923 15.8156
# 2 16.8804 103.5046 25.2674 -24.8969 -4.0893 -4.0292
# 3 26.2078 25.2674 91.2634 -21.3069 11.2196 6.4346
# 4 -14.0061 -24.8969 -21.3069 42.2449 -3.7274 5.1457
# 5 22.5923 -4.0893 11.2196 -3.7274 33.4131 -2.9679
# 6 15.8156 -4.0292 6.4346 5.1457 -2.9679 27.5887
#
#
#
# Elastic Compliance Matrix: (Units=1/GPa)
#
#
# Indices 1 2 3 4 5 6 
#
# 1 0.017377 -0.002569 -0.000918 0.004182 -0.012375 -0.012234
# 2 -0.002569 0.012211 -0.002255 0.005232 0.004868 0.003330
# 3 -0.000918 -0.002255 0.013984 0.005610 -0.004129 -0.004555
# 4 0.004182 0.005232 0.005610 0.031957 -0.001310 -0.009043
# 5 -0.012375 0.004868 -0.004129 -0.001310 0.041328 0.013459
# 6 -0.012234 0.003330 -0.004555 -0.009043 0.013459 0.047943
#
#
# Mechanical properties :
#
#
# Convention : Reuss Voigt Hill
#
# Bulk Modulus (GPa) = 31.16511 47.05595 39.11053
# Shear Modulus (GPa) = 26.74086 35.21178 30.97632
#
# Velocity S-wave (km/s) = 3.35310 3.84771 3.60889
# Velocity P-wave (km/s) = 5.30042 6.28686 5.81460
#
# Compressibility (1/GPa) = 0.03208716
#
# Stress axis : x y z
#
# Youngs Moduli (GPa) = 57.54807 81.89212 71.51086
#
# Poissons Ratio (x) = 0.21038 0.06568
# Poissons Ratio (y) = 0.14784 0.16125
# Poissons Ratio (z) = 0.05285 0.18466
#
# Static dielectric constant tensor:
#      x y z
#    x 1.928030 -0.055740 -0.016290 
#    y -0.055740 1.934430 0.037410 
#    z -0.016290 0.037410 2.028620 
# 
# From -- ./inp_files/47518.got.cif
#   From: 2010.05.17/outbox.cif.g08.bks.cpg/sg2_24_cif.got.tgz:47518.got - 2010.06.03 11:33:40.
