data_PCOD9010641
_publ_section_title
;
Structure prediction by ZEFSAII (Michael W. Deem and Ramdas Pophale) SiO2 
 PCOD9010641
Probable space group: P -1
;
_chemical_formula_sum "Si O2"
_cell_formula_units_Z 16
_cell_length_a 7.688922
_cell_length_b 11.723193
_cell_length_c 14.184099
_cell_angle_alpha 144.245629
_cell_angle_beta 74.285647
_cell_angle_gamma 87.477078
_cell_volume 635.133823
_symmetry_space_group_name_H-M "P -1"
_symmetry_group_IT_number 2
_symmetry_cell_setting 'triclinic'
loop_
_space_group_symop_operation_xyz
x,y,z
-x,-y,-z
loop_
_atom_site_type_symbol
_atom_site_label
_atom_site_fract_x
_atom_site_fract_y
_atom_site_fract_z
Si Si1 0.874751 0.439894 0.060241
Si Si2 0.922110 0.363845 0.711778
Si Si3 0.775209 0.311557 0.364500
Si Si4 0.018036 0.954827 0.337859
Si Si5 0.592987 0.763220 0.603315
Si Si6 0.246417 0.042262 0.128394
Si Si7 0.371024 0.363314 0.218361
Si Si8 0.527533 0.180246 0.558399
O O1 0.973654 0.491694 0.171202
O O2 0.633017 0.597621 0.215250
O O3 0.000000 0.500000 0.000000
O O4 0.915043 0.196063 0.865036
O O5 0.897351 0.226665 0.711736
O O6 0.067216 0.155831 0.484580
O O7 0.722744 0.526420 0.793108
O O8 0.746966 0.503152 0.423493
O O9 0.618639 0.215261 0.306155
O O10 0.705792 0.445803 0.563913
O O11 0.006743 0.131465 0.218386
O O12 0.770945 0.088242 0.464130
O O13 0.670262 0.901547 0.749195
O O14 0.539560 0.816082 0.537352
O O15 0.289334 0.192948 0.147247
O O16 0.386292 0.784588 0.916252
O O17 0.500000 0.000000 0.500000
#
# Coordination Sequence:
#
# PCOD9010641 Si02
#       8
#     2   2   2   2   2   2   2   2
#     4  10  22  41  65  93 132 181 226 281 347 415
#     4  10  21  40  69  92 135 180 224 284 347 407
#     4  10  22  45  65  96 142 173 231 291 344 416
#     4  10  23  43  61 100 137 178 228 285 343 423
#     4  10  23  41  68  99 131 185 231 282 351 417
#     4  10  23  41  70  96 135 182 226 291 355 414
#     4  10  21  40  64 101 133 170 237 286 339 431
#     4  12  23  40  66  98 140 175 231 291 344 422
#
# _framework density 25.191541999999998
#
# number of rings (size 3 to 8) (size 9 to 14) (size 15 to 20)
#    0.000    1.750    2.500    2.250    5.250    0.000 
#    0.000   23.125    0.000    1.500    0.000    0.000 
#    0.000    0.000    0.000    0.000    0.000    0.000 
#
# Total GULP energy -89524.292764 kJ/mol
# GULP energy per Si atom -5595.268298 kJ/mol
# Density = 2.513420 g / cm^3
# Si number density = 25.191542 Si / 1000 Ang^3
#
#
#
# Elastic Constant Matrix: (Units=GPa)
#
#
# Indices 1 2 3 4 5 6 
#
# 1 52.5041 30.9007 52.1897 3.5139 -13.7603 -29.8326
# 2 30.9007 176.2820 40.3164 8.2624 -10.3010 -25.1539
# 3 52.1897 40.3164 159.7961 10.0257 -16.1789 -14.1042
# 4 3.5139 8.2624 10.0257 31.3328 -7.8895 -4.1364
# 5 -13.7603 -10.3010 -16.1789 -7.8895 56.6236 7.9650
# 6 -29.8326 -25.1539 -14.1042 -4.1364 7.9650 33.8730
#
#
#
# Elastic Compliance Matrix: (Units=1/GPa)
#
#
# Indices 1 2 3 4 5 6 
#
# 1 0.064570 -0.000520 -0.016499 0.005874 0.004780 0.049206
# 2 -0.000520 0.006611 -0.001095 -0.000796 0.000108 0.003872
# 3 -0.016499 -0.001095 0.011137 -0.002854 0.000135 -0.011088
# 4 0.005874 -0.000796 -0.002854 0.034337 0.004327 0.006570
# 5 0.004780 0.000108 0.000135 0.004327 0.019441 0.000303
# 6 0.049206 0.003872 -0.011088 0.006570 0.000303 0.071848
#
#
# Mechanical properties :
#
#
# Convention : Reuss Voigt Hill
#
# Bulk Modulus (GPa) = 21.69720 70.59954 46.14837
# Shear Modulus (GPa) = 19.26517 42.04424 30.65471
#
# Velocity S-wave (km/s) = 2.76841 4.08975 3.49214
# Velocity P-wave (km/s) = 4.34170 7.09840 5.88378
#
# Compressibility (1/GPa) = 0.04608890
#
# Stress axis : x y z
#
# Youngs Moduli (GPa) = 15.48697 151.27334 89.78958
#
# Poissons Ratio (x) = 0.07867 1.48146
# Poissons Ratio (y) = 0.00805 0.09835
# Poissons Ratio (z) = 0.25552 0.16570
#
# Static dielectric constant tensor:
#      x y z
#    x 2.040930 0.043560 0.024790 
#    y 0.043560 2.035200 -0.056950 
#    z 0.024790 -0.056950 2.010420 
# 
# From -- ./inp_files/428923.got.cif
#   From: 2010.05.17/outbox.cif.g08.bks.cpg/sg2_215_cif.got.tgz:428923.got - 2010.06.03 11:33:40.
