data_PCOD9010593
_publ_section_title
;
Structure prediction by ZEFSAII (Michael W. Deem and Ramdas Pophale) SiO2 
 PCOD9010593
Probable space group: P -1
;
_chemical_formula_sum "Si O2"
_cell_formula_units_Z 16
_cell_length_a 12.969512
_cell_length_b 12.787312
_cell_length_c 13.370602
_cell_angle_alpha 121.920891
_cell_angle_beta 157.796975
_cell_angle_gamma 69.543782
_cell_volume 639.853376
_symmetry_space_group_name_H-M "P -1"
_symmetry_group_IT_number 2
_symmetry_cell_setting 'triclinic'
loop_
_space_group_symop_operation_xyz
x,y,z
-x,-y,-z
loop_
_atom_site_type_symbol
_atom_site_label
_atom_site_fract_x
_atom_site_fract_y
_atom_site_fract_z
Si Si1 0.900248 0.247642 0.974914
Si Si2 0.960221 0.453883 0.825192
Si Si3 0.725081 0.212750 0.227473
Si Si4 0.329858 0.274997 0.062378
Si Si5 0.798574 0.503930 0.227122
Si Si6 0.410340 0.791709 0.130509
Si Si7 0.912693 0.005879 0.206384
Si Si8 0.275916 0.095990 0.222887
O O1 0.975865 0.405515 0.104467
O O2 0.184405 0.220883 0.185182
O O3 0.805654 0.188857 0.972953
O O4 0.599909 0.153979 0.595582
O O5 0.182393 0.380343 0.968745
O O6 0.000000 0.500000 0.000000
O O7 0.377655 0.653166 0.566129
O O8 0.457484 0.225373 0.054756
O O9 0.012176 0.353853 0.585720
O O10 0.680638 0.218989 0.071855
O O11 0.802797 0.082479 0.230931
O O12 0.090862 0.131507 0.821549
O O13 0.000000 0.500000 0.500000
O O14 0.500000 0.500000 0.000000
O O15 0.659159 0.360830 0.973514
O O16 0.294599 0.037314 0.100851
O O17 0.761597 0.893302 0.495058
O O18 0.000000 0.000000 0.000000
#
# Coordination Sequence:
#
# PCOD9010593 Si02
#       8
#     2   2   2   2   2   2   2   2
#     4  12  26  46  75 108 145 190 247 306 366 432
#     4  12  27  54  79 106 145 195 250 304 363 428
#     4  11  26  46  71 107 153 191 244 298 368 439
#     4  12  29  48  76 109 146 195 250 299 359 440
#     4  10  21  40  63  96 132 176 229 283 344 422
#     4  11  25  41  74 103 146 188 239 298 377 425
#     4  12  26  45  72 103 150 195 241 301 370 437
#     4  12  25  44  71 112 150 184 242 300 372 438
#
# _framework density 25.00573
#
# number of rings (size 3 to 8) (size 9 to 14) (size 15 to 20)
#    0.000    0.500    2.500    4.875    5.250    2.500 
#    0.000    0.000    0.000    0.000    0.000    0.000 
#    0.000    0.000    0.000    0.000    0.000    0.000 
#
# Total GULP energy -89459.576485 kJ/mol
# GULP energy per Si atom -5591.223530 kJ/mol
# Density = 2.494882 g / cm^3
# Si number density = 25.005730 Si / 1000 Ang^3
#
#
#
# Elastic Constant Matrix: (Units=GPa)
#
#
# Indices 1 2 3 4 5 6 
#
# 1 133.9190 57.7650 31.0895 4.9135 10.1425 -18.8825
# 2 57.7650 165.2231 28.3548 6.6913 2.8569 -23.5104
# 3 31.0895 28.3548 90.4142 7.7740 -4.6695 -0.5925
# 4 4.9135 6.6913 7.7740 46.6531 0.6717 2.7398
# 5 10.1425 2.8569 -4.6695 0.6717 20.4664 -3.3476
# 6 -18.8825 -23.5104 -0.5925 2.7398 -3.3476 40.0409
#
#
#
# Elastic Compliance Matrix: (Units=1/GPa)
#
#
# Indices 1 2 3 4 5 6 
#
# 1 0.009978 -0.002504 -0.002847 -0.000314 -0.004774 0.002815
# 2 -0.002504 0.007683 -0.001435 -0.000805 0.000424 0.003400
# 3 -0.002847 -0.001435 0.012842 -0.001607 0.004345 -0.001522
# 4 -0.000314 -0.000805 -0.001607 0.022000 -0.001189 -0.002249
# 5 -0.004774 0.000424 0.004345 -0.001189 0.052613 0.002542
# 6 0.002815 0.003400 -0.001522 -0.002249 0.002542 0.028642
#
#
# Mechanical properties :
#
#
# Convention : Reuss Voigt Hill
#
# Bulk Modulus (GPa) = 59.06303 69.33052 64.19678
# Shear Modulus (GPa) = 32.68498 39.58854 36.13676
#
# Velocity S-wave (km/s) = 3.61931 3.98323 3.80562
# Velocity P-wave (km/s) = 6.41381 6.99578 6.71110
#
# Compressibility (1/GPa) = 0.01693107
#
# Stress axis : x y z
#
# Youngs Moduli (GPa) = 100.21712 130.15372 77.87053
#
# Poissons Ratio (x) = 0.32592 0.22169
# Poissons Ratio (y) = 0.25096 0.11175
# Poissons Ratio (z) = 0.28531 0.18679
#
# Static dielectric constant tensor:
#      x y z
#    x 2.008960 -0.006710 -0.028490 
#    y -0.006710 2.056280 0.071430 
#    z -0.028490 0.071430 1.929600 
# 
# From -- ./inp_files/573986.got.cif
#   From: 2010.05.17/outbox.cif.g08.bks.cpg/sg2_287_cif.got.tgz:573986.got - 2010.06.03 11:33:40.
