data_PCOD9010759
_publ_section_title
;
Structure prediction by ZEFSAII (Michael W. Deem and Ramdas Pophale) SiO2 
 PCOD9010759
Probable space group: P -1
;
_chemical_formula_sum "Si O2"
_cell_formula_units_Z 14
_cell_length_a 5.361475
_cell_length_b 7.315337
_cell_length_c 18.498017
_cell_angle_alpha 52.245141
_cell_angle_beta 78.602669
_cell_angle_gamma 84.058543
_cell_volume 562.161487
_symmetry_space_group_name_H-M "P -1"
_symmetry_group_IT_number 2
_symmetry_cell_setting 'triclinic'
loop_
_space_group_symop_operation_xyz
x,y,z
-x,-y,-z
loop_
_atom_site_type_symbol
_atom_site_label
_atom_site_fract_x
_atom_site_fract_y
_atom_site_fract_z
Si Si1 0.415555 0.802516 0.610411
Si Si2 0.366023 0.528375 0.425245
Si Si3 0.692818 0.272029 0.960035
Si Si4 0.039885 0.141004 0.603147
Si Si5 0.156564 0.156189 0.037361
Si Si6 0.619412 0.715949 0.777500
Si Si7 0.100238 0.937821 0.783447
O O1 0.456974 0.559256 0.627750
O O2 0.577988 0.785277 0.679110
O O3 0.500000 0.000000 0.500000
O O4 0.138163 0.897105 0.624995
O O5 0.500000 0.500000 0.500000
O O6 0.136788 0.331600 0.493071
O O7 0.237436 0.775054 0.377794
O O8 0.648167 0.442769 0.854474
O O9 0.756607 0.018541 0.987761
O O10 0.426945 0.264724 0.020209
O O11 0.948034 0.331266 0.976270
O O12 0.173490 0.145718 0.673769
O O13 0.012987 0.016189 0.143000
O O14 0.353261 0.791173 0.810051
O O15 0.864397 0.817435 0.782077
#
# Coordination Sequence:
#
# PCOD9010759 Si02
#       7
#     2   2   2   2   2   2   2
#     4   9  21  42  61  90 130 167 206 270 322 369
#     4  10  21  40  64  91 120 172 216 263 322 385
#     4  10  22  41  63  92 130 159 219 248 327 381
#     4   9  22  40  57  94 125 161 217 264 315 389
#     4  10  22  41  64  92 126 172 195 275 314 374
#     4  11  24  42  62  97 121 169 214 260 314 391
#     4  11  24  40  65  91 128 164 211 263 320 373
#
# _framework density 24.903876
#
# number of rings (size 3 to 8) (size 9 to 14) (size 15 to 20)
#    0.000    2.000    0.000    1.714    8.000    4.000 
#   12.857    1.429    0.000    0.000    0.000    0.000 
#    0.000    0.000    0.000    0.000    0.000    0.000 
#
# Total GULP energy -78030.640449 kJ/mol
# GULP energy per Si atom -5573.617175 kJ/mol
# Density = 2.484719 g / cm^3
# Si number density = 24.903876 Si / 1000 Ang^3
#
#
#
# Elastic Constant Matrix: (Units=GPa)
#
#
# Indices 1 2 3 4 5 6 
#
# 1 157.4584 66.4674 19.9336 -0.8532 16.6404 -39.5630
# 2 66.4674 138.4219 7.6624 10.2791 11.2447 -40.6044
# 3 19.9336 7.6624 102.4699 0.2709 6.2255 -19.5274
# 4 -0.8532 10.2791 0.2709 42.0784 -9.8585 2.3821
# 5 16.6404 11.2447 6.2255 -9.8585 35.3700 -6.1172
# 6 -39.5630 -40.6044 -19.5274 2.3821 -6.1172 47.2033
#
#
#
# Elastic Compliance Matrix: (Units=1/GPa)
#
#
# Indices 1 2 3 4 5 6 
#
# 1 0.008999 -0.002723 -0.000507 0.000008 -0.002469 0.004670
# 2 -0.002723 0.011209 0.001324 -0.003763 -0.002213 0.007810
# 3 -0.000507 0.001324 0.010814 -0.001041 -0.001504 0.005046
# 4 0.000008 -0.003763 -0.001041 0.026829 0.008169 -0.003956
# 5 -0.002469 -0.002213 -0.001504 0.008169 0.032543 -0.000790
# 6 0.004670 0.007810 0.005046 -0.003956 -0.000790 0.034002
#
#
# Mechanical properties :
#
#
# Convention : Reuss Voigt Hill
#
# Bulk Modulus (GPa) = 36.75105 65.16410 50.95757
# Shear Modulus (GPa) = 36.42252 45.21613 40.81933
#
# Velocity S-wave (km/s) = 3.82845 4.26564 4.05294
# Velocity P-wave (km/s) = 5.85934 7.10521 6.51214
#
# Compressibility (1/GPa) = 0.02721011
#
# Stress axis : x y z
#
# Youngs Moduli (GPa) = 111.12481 89.21454 92.47095
#
# Poissons Ratio (x) = 0.24296 0.04689
# Poissons Ratio (y) = 0.30263 -0.12247
# Poissons Ratio (z) = 0.05635 -0.11816
#
# Static dielectric constant tensor:
#      x y z
#    x 2.110700 0.063250 -0.091810 
#    y 0.063250 1.974100 -0.049410 
#    z -0.091810 -0.049410 2.069240 
# 
# From -- ./inp_files/50715.got.cif
#   From: 2010.05.17/outbox.cif.g08.bks.cpg/sg2_26_cif.got.tgz:50715.got - 2010.06.03 11:33:40.
