data_PCOD9010478
_publ_section_title
;
Structure prediction by ZEFSAII (Michael W. Deem and Ramdas Pophale) SiO2 
 PCOD9010478
Probable space group: P -1
;
_chemical_formula_sum "Si O2"
_cell_formula_units_Z 14
_cell_length_a 14.527450
_cell_length_b 7.395616
_cell_length_c 12.030658
_cell_angle_alpha 130.001084
_cell_angle_beta 42.770655
_cell_angle_gamma 135.816457
_cell_volume 592.961362
_symmetry_space_group_name_H-M "P -1"
_symmetry_group_IT_number 2
_symmetry_cell_setting 'triclinic'
loop_
_space_group_symop_operation_xyz
x,y,z
-x,-y,-z
loop_
_atom_site_type_symbol
_atom_site_label
_atom_site_fract_x
_atom_site_fract_y
_atom_site_fract_z
Si Si1 0.142894 0.058543 0.609287
Si Si2 0.279639 0.954160 0.843171
Si Si3 0.613242 0.403647 0.311261
Si Si4 0.970885 0.229613 0.175661
Si Si5 0.806170 0.885021 0.799126
Si Si6 0.298880 0.501840 0.064030
Si Si7 0.613362 0.918568 0.778698
O O1 0.219801 0.351705 0.715672
O O2 0.985271 0.989602 0.657581
O O3 0.095112 0.859299 0.677785
O O4 0.266076 0.039340 0.411877
O O5 0.404729 0.857790 0.711946
O O6 0.157332 0.765296 0.786783
O O7 0.335031 0.267095 0.893069
O O8 0.200430 0.921263 0.021311
O O9 0.500000 0.500000 0.500000
O O10 0.551566 0.316999 0.207737
O O11 0.141567 0.468066 0.133394
O O12 0.000000 0.000000 0.000000
O O13 0.697881 0.866849 0.787129
O O14 0.740731 0.605180 0.814961
O O15 0.406612 0.815342 0.093390
#
# Coordination Sequence:
#
# PCOD9010478 Si02
#       7
#     2   2   2   2   2   2   2
#     4  10  21  40  63  92 123 165 208 255 307 371
#     4   9  20  40  60  92 122 159 210 255 306 363
#     4  10  24  42  58  89 129 168 209 244 307 384
#     4   9  17  38  62  94 121 153 208 263 307 354
#     4   9  21  39  64  96 115 165 209 261 314 345
#     4   8  20  38  60  95 119 159 206 257 307 362
#     4  11  22  41  60  91 134 164 202 252 312 368
#
# _framework density 23.610309000000001
#
# number of rings (size 3 to 8) (size 9 to 14) (size 15 to 20)
#    0.857    1.714    1.429    0.429    2.000    6.286 
#    7.714    1.429    0.000    0.000    0.000    0.000 
#    0.000    0.000    0.000    0.000    0.000    0.000 
#
# Total GULP energy -78111.329311 kJ/mol
# GULP energy per Si atom -5579.380665 kJ/mol
# Density = 2.355657 g / cm^3
# Si number density = 23.610309 Si / 1000 Ang^3
#
#
#
# Elastic Constant Matrix: (Units=GPa)
#
#
# Indices 1 2 3 4 5 6 
#
# 1 177.8043 39.9281 37.8589 10.0435 -3.0045 12.4308
# 2 39.9281 89.6547 5.5939 7.9766 -10.3146 0.9595
# 3 37.8589 5.5939 71.5197 3.4716 -0.3107 -5.1798
# 4 10.0435 7.9766 3.4716 24.7335 -0.6337 -0.1510
# 5 -3.0045 -10.3146 -0.3107 -0.6337 34.9062 7.8058
# 6 12.4308 0.9595 -5.1798 -0.1510 7.8058 23.2619
#
#
#
# Elastic Compliance Matrix: (Units=1/GPa)
#
#
# Indices 1 2 3 4 5 6 
#
# 1 0.007598 -0.002825 -0.004093 -0.001608 0.000910 -0.005171
# 2 -0.002825 0.013060 0.000630 -0.003062 0.003591 -0.000114
# 3 -0.004093 0.000630 0.016595 -0.000869 -0.001452 0.006338
# 4 -0.001608 -0.003062 -0.000869 0.042186 -0.000566 0.001256
# 5 0.000910 0.003591 -0.001452 -0.000566 0.032412 -0.011837
# 6 -0.005171 -0.000114 0.006338 0.001256 -0.011837 0.051148
#
#
# Mechanical properties :
#
#
# Convention : Reuss Voigt Hill
#
# Bulk Modulus (GPa) = 40.52708 56.19339 48.36023
# Shear Modulus (GPa) = 27.20336 33.62018 30.41177
#
# Velocity S-wave (km/s) = 3.39806 3.77764 3.59286
# Velocity P-wave (km/s) = 5.70947 6.54824 6.14318
#
# Compressibility (1/GPa) = 0.02467486
#
# Stress axis : x y z
#
# Youngs Moduli (GPa) = 131.61486 76.57182 60.26035
#
# Poissons Ratio (x) = 0.21634 0.24667
# Poissons Ratio (y) = 0.37185 -0.03797
# Poissons Ratio (z) = 0.53876 -0.04825
#
# Static dielectric constant tensor:
#      x y z
#    x 1.924940 0.016500 0.042020 
#    y 0.016500 1.967530 -0.037440 
#    z 0.042020 -0.037440 1.985920 
# 
# From -- ./inp_files/448181.got.cif
#   From: 2010.05.17/outbox.cif.g08.bks.cpg/sg2_225_cif.got.tgz:448181.got - 2010.06.03 11:33:40.
