data_PCOD9010617
_publ_section_title
;
Structure prediction by ZEFSAII (Michael W. Deem and Ramdas Pophale) SiO2 
 PCOD9010617
Probable space group: P -1
;
_chemical_formula_sum "Si O2"
_cell_formula_units_Z 16
_cell_length_a 21.472627
_cell_length_b 5.680045
_cell_length_c 12.389314
_cell_angle_alpha 97.224889
_cell_angle_beta 28.043174
_cell_angle_gamma 94.436767
_cell_volume 702.932868
_symmetry_space_group_name_H-M "P -1"
_symmetry_group_IT_number 2
_symmetry_cell_setting 'triclinic'
loop_
_space_group_symop_operation_xyz
x,y,z
-x,-y,-z
loop_
_atom_site_type_symbol
_atom_site_label
_atom_site_fract_x
_atom_site_fract_y
_atom_site_fract_z
Si Si1 0.570580 0.559151 0.135040
Si Si2 0.359202 0.063057 0.280318
Si Si3 0.834397 0.099527 0.016953
Si Si4 0.559658 0.266089 0.334162
Si Si5 0.166508 0.263317 0.186688
Si Si6 0.726498 0.446319 0.679180
Si Si7 0.982640 0.640657 0.385892
Si Si8 0.356591 0.956348 0.522049
O O1 0.591093 0.335393 0.167795
O O2 0.427547 0.694639 0.376949
O O3 0.678643 0.735553 0.023767
O O4 0.611436 0.490761 0.948227
O O5 0.283211 0.820254 0.365267
O O6 0.366616 0.084968 0.399559
O O7 0.295952 0.315811 0.346602
O O8 0.500000 0.000000 0.000000
O O9 0.697295 0.208212 0.180191
O O10 0.790150 0.051109 0.203563
O O11 0.953316 0.259516 0.813767
O O12 0.862525 0.871950 0.885401
O O13 0.500000 0.500000 0.500000
O O14 0.446008 0.083764 0.481346
O O15 0.097640 0.181631 0.397077
O O16 0.102574 0.524858 0.268942
O O17 0.869569 0.466639 0.517213
#
# Coordination Sequence:
#
# PCOD9010617 Si02
#       8
#     2   2   2   2   2   2   2   2
#     4  11  21  39  65 101 132 176 219 283 353 409
#     4  12  26  49  72 103 132 181 238 294 344 397
#     4  12  23  39  64  97 138 181 215 280 341 430
#     4  12  23  37  62 101 145 174 216 274 354 430
#     4  10  21  40  63  97 134 172 227 264 351 418
#     4  11  27  46  74  99 136 178 238 293 340 397
#     4  10  24  42  65  96 132 182 221 281 335 415
#     4  12  26  39  66  98 135 180 226 285 349 404
#
# _framework density 22.761773999999999
#
# number of rings (size 3 to 8) (size 9 to 14) (size 15 to 20)
#    0.000    0.750    5.000    2.625    3.500    0.000 
#    0.000    1.250    0.000    0.000    0.000    0.000 
#    0.000    0.000    0.000    0.000    0.000    0.000 
#
# Total GULP energy -89336.878724 kJ/mol
# GULP energy per Si atom -5583.554920 kJ/mol
# Density = 2.270997 g / cm^3
# Si number density = 22.761774 Si / 1000 Ang^3
#
#
#
# Elastic Constant Matrix: (Units=GPa)
#
#
# Indices 1 2 3 4 5 6 
#
# 1 80.6051 20.5941 22.6993 -9.1394 18.1181 0.8836
# 2 20.5941 71.1312 21.8553 -7.6598 -1.1926 8.2515
# 3 22.6993 21.8553 134.5835 -15.7198 19.8043 5.3043
# 4 -9.1394 -7.6598 -15.7198 29.2858 -2.9351 -1.1677
# 5 18.1181 -1.1926 19.8043 -2.9351 33.1818 -7.1874
# 6 0.8836 8.2515 5.3043 -1.1677 -7.1874 44.4812
#
#
#
# Elastic Compliance Matrix: (Units=1/GPa)
#
#
# Indices 1 2 3 4 5 6 
#
# 1 0.015820 -0.004218 -0.000382 0.002746 -0.008489 -0.000786
# 2 -0.004218 0.016492 -0.002225 0.002121 0.003975 -0.002012
# 3 -0.000382 -0.002225 0.009113 0.003602 -0.005301 -0.001428
# 4 0.002746 0.002121 0.003602 0.037470 -0.000245 0.000066
# 5 -0.008489 0.003975 -0.005301 -0.000245 0.039450 0.006431
# 6 -0.000786 -0.002012 -0.001428 0.000066 0.006431 0.024082
#
#
# Mechanical properties :
#
#
# Convention : Reuss Voigt Hill
#
# Bulk Modulus (GPa) = 36.00430 46.29079 41.14755
# Shear Modulus (GPa) = 30.24172 36.13450 33.18811
#
# Velocity S-wave (km/s) = 3.64898 3.98868 3.82260
# Velocity P-wave (km/s) = 5.79703 6.44934 6.13187
#
# Compressibility (1/GPa) = 0.02777446
#
# Stress axis : x y z
#
# Youngs Moduli (GPa) = 63.21284 60.63621 109.73078
#
# Poissons Ratio (x) = 0.25577 0.04195
# Poissons Ratio (y) = 0.26664 0.24411
# Poissons Ratio (z) = 0.02417 0.13489
#
# Static dielectric constant tensor:
#      x y z
#    x 1.883500 0.013090 0.047830 
#    y 0.013090 1.978850 0.014520 
#    z 0.047830 0.014520 1.910600 
# 
# From -- ./inp_files/69864.got.cif
#   From: 2010.05.17/outbox.cif.g08.bks.cpg/sg2_35_cif.got.tgz:69864.got - 2010.06.03 11:33:40.
