data_PCOD9010881
_publ_section_title
;
Structure prediction by ZEFSAII (Michael W. Deem and Ramdas Pophale) SiO2 
 PCOD9010881
Probable space group: P -1
;
_chemical_formula_sum "Si O2"
_cell_formula_units_Z 16
_cell_length_a 16.198453
_cell_length_b 8.933709
_cell_length_c 8.266227
_cell_angle_alpha 51.729881
_cell_angle_beta 58.822339
_cell_angle_gamma 55.749230
_cell_volume 749.470217
_symmetry_space_group_name_H-M "P -1"
_symmetry_group_IT_number 2
_symmetry_cell_setting 'triclinic'
loop_
_space_group_symop_operation_xyz
x,y,z
-x,-y,-z
loop_
_atom_site_type_symbol
_atom_site_label
_atom_site_fract_x
_atom_site_fract_y
_atom_site_fract_z
Si Si1 0.218192 0.395283 0.732576
Si Si2 0.879957 0.622366 0.501855
Si Si3 0.376109 0.600240 0.361793
Si Si4 0.458547 0.235663 0.935018
Si Si5 0.492407 0.791770 0.715158
Si Si6 0.879524 0.050460 0.117831
Si Si7 0.714872 0.074402 0.032877
Si Si8 0.215322 0.487315 0.006691
O O1 0.155302 0.433667 0.601370
O O2 0.289544 0.532494 0.577679
O O3 0.285469 0.153452 0.825258
O O4 0.161556 0.432713 0.938812
O O5 0.817150 0.577152 0.744268
O O6 0.000000 0.500000 0.500000
O O7 0.862805 0.861844 0.350503
O O8 0.468349 0.663390 0.298525
O O9 0.435414 0.404169 0.321484
O O10 0.314470 0.798745 0.184801
O O11 0.477587 0.236339 0.107951
O O12 0.337776 0.360711 0.950031
O O13 0.500000 0.000000 0.000000
O O14 0.372877 0.811331 0.822452
O O15 0.500000 0.000000 0.500000
O O16 0.824860 0.062416 0.992177
O O17 0.823147 0.267857 0.112195
O O18 0.000000 0.000000 0.000000
#
# Coordination Sequence:
#
# PCOD9010881 Si02
#       8
#     2   2   2   2   2   2   2   2
#     4  11  25  43  70 101 135 185 227 283 349 415
#     4  11  25  48  74  97 140 182 232 299 347 407
#     4  11  22  41  66  96 140 186 224 281 342 405
#     4  11  25  42  66 103 146 180 229 285 337 414
#     4  11  20  37  65  93 127 186 232 267 339 410
#     4  11  23  42  69 101 130 180 231 287 352 407
#     4  10  21  40  64  94 136 176 235 283 335 417
#     4  12  25  46  70 104 140 179 238 282 345 418
#
# _framework density 21.348413999999998
#
# number of rings (size 3 to 8) (size 9 to 14) (size 15 to 20)
#    0.000    1.000    2.500    6.000    1.750    3.000 
#    0.000    0.625    0.000    0.000    0.000    0.000 
#    0.000    0.000    0.000    0.000    0.000    0.000 
#
# Total GULP energy -89364.919622 kJ/mol
# GULP energy per Si atom -5585.307476 kJ/mol
# Density = 2.129982 g / cm^3
# Si number density = 21.348414 Si / 1000 Ang^3
#
#
#
# Elastic Constant Matrix: (Units=GPa)
#
#
# Indices 1 2 3 4 5 6 
#
# 1 120.3134 47.0834 60.1724 2.7722 -0.5330 -17.7542
# 2 47.0834 108.0334 31.4230 -20.1103 7.9850 -2.0166
# 3 60.1724 31.4230 105.4437 -21.3630 17.7386 1.5079
# 4 2.7722 -20.1103 -21.3630 24.3903 1.9730 4.0348
# 5 -0.5330 7.9850 17.7386 1.9730 27.7983 -0.0549
# 6 -17.7542 -2.0166 1.5079 4.0348 -0.0549 33.5944
#
#
#
# Elastic Compliance Matrix: (Units=1/GPa)
#
#
# Indices 1 2 3 4 5 6 
#
# 1 0.036978 -0.018699 -0.032093 -0.054575 0.030485 0.026465
# 2 -0.018699 0.020897 0.015150 0.036401 -0.018639 -0.013710
# 3 -0.032093 0.015150 0.041813 0.059834 -0.035945 -0.025173
# 4 -0.054575 0.036401 0.059834 0.142162 -0.059866 -0.046515
# 5 0.030485 -0.018639 -0.035945 -0.059866 0.069145 0.023909
# 6 0.026465 -0.013710 -0.025173 -0.046515 0.023909 0.049686
#
#
# Mechanical properties :
#
#
# Convention : Reuss Voigt Hill
#
# Bulk Modulus (GPa) = 35.20777 67.90537 51.55657
# Shear Modulus (GPa) = 11.32672 30.16406 20.74539
#
# Velocity S-wave (km/s) = 2.30590 3.76299 3.12068
# Velocity P-wave (km/s) = 4.85977 7.12442 6.09814
#
# Compressibility (1/GPa) = 0.02840282
#
# Stress axis : x y z
#
# Youngs Moduli (GPa) = 27.04291 47.85328 23.91619
#
# Poissons Ratio (x) = 0.89483 0.76755
# Poissons Ratio (y) = 0.50569 -0.36233
# Poissons Ratio (z) = 0.86790 -0.72499
#
# Static dielectric constant tensor:
#      x y z
#    x 1.834190 0.001810 -0.012000 
#    y 0.001810 1.765360 0.025240 
#    z -0.012000 0.025240 1.839040 
# 
# From -- ./inp_files/328366.got.cif
#   From: 2010.05.17/outbox.cif.g08.bks.cpg/sg2_165_cif.got.tgz:328366.got - 2010.06.03 11:33:40.
