data_PCOD9010449
_publ_section_title
;
Structure prediction by ZEFSAII (Michael W. Deem and Ramdas Pophale) SiO2 
 PCOD9010449
Probable space group: P -1
;
_chemical_formula_sum "Si O2"
_cell_formula_units_Z 16
_cell_length_a 9.306582
_cell_length_b 8.896043
_cell_length_c 16.392238
_cell_angle_alpha 101.116186
_cell_angle_beta 140.529585
_cell_angle_gamma 66.924259
_cell_volume 779.574889
_symmetry_space_group_name_H-M "P -1"
_symmetry_group_IT_number 2
_symmetry_cell_setting 'triclinic'
loop_
_space_group_symop_operation_xyz
x,y,z
-x,-y,-z
loop_
_atom_site_type_symbol
_atom_site_label
_atom_site_fract_x
_atom_site_fract_y
_atom_site_fract_z
Si Si1 0.926164 0.771045 0.409632
Si Si2 0.625907 0.821569 0.901219
Si Si3 0.032839 0.215297 0.108336
Si Si4 0.241971 0.496784 0.410902
Si Si5 0.184264 0.408204 0.885888
Si Si6 0.920738 0.098415 0.354035
Si Si7 0.749798 0.872630 0.635733
Si Si8 0.466466 0.811493 0.112644
O O1 0.133302 0.595180 0.456642
O O2 0.951786 0.819747 0.518099
O O3 0.660494 0.775946 0.268024
O O4 0.969987 0.913700 0.389485
O O5 0.372140 0.805386 0.764763
O O6 0.799793 0.788732 0.895566
O O7 0.552104 0.013376 0.914218
O O8 0.755794 0.702032 0.019089
O O9 0.898830 0.401755 0.104189
O O10 0.204290 0.110128 0.246400
O O11 0.806425 0.165766 0.981331
O O12 0.500000 0.500000 0.500000
O O13 0.248203 0.311418 0.395347
O O14 0.043242 0.597649 0.265978
O O15 0.412675 0.333091 0.916089
O O16 0.030146 0.104742 0.314565
O O17 0.500000 0.000000 0.500000
#
# Coordination Sequence:
#
# PCOD9010449 Si02
#       8
#     2   2   2   2   2   2   2   2
#     4   9  21  39  65  89 124 169 200 258 309 362
#     4  11  23  39  66  94 122 165 206 257 311 365
#     4  11  24  41  63  92 128 158 208 261 311 366
#     4  10  22  40  62  92 129 161 203 261 308 367
#     4  10  22  41  63  89 122 168 204 247 318 369
#     4  10  22  40  65  89 127 164 211 247 310 378
#     4  11  25  40  64  92 122 167 211 251 312 373
#     4  10  21  40  63  91 125 160 208 254 308 369
#
# _framework density 20.524006
#
# number of rings (size 3 to 8) (size 9 to 14) (size 15 to 20)
#    0.000    1.750    0.000    3.000    8.750    5.500 
#    2.250    0.000    0.000    0.000    0.000    0.000 
#    0.000    0.000    0.000    0.000    0.000    0.000 
#
# Total GULP energy -89409.989323 kJ/mol
# GULP energy per Si atom -5588.124333 kJ/mol
# Density = 2.047729 g / cm^3
# Si number density = 20.524006 Si / 1000 Ang^3
#
#
#
# Elastic Constant Matrix: (Units=GPa)
#
#
# Indices 1 2 3 4 5 6 
#
# 1 106.6010 -4.6666 57.6142 -6.6309 14.6329 -4.6026
# 2 -4.6666 47.7185 22.5475 -6.9378 2.6394 -18.3346
# 3 57.6142 22.5475 87.5158 -13.8479 13.9431 -7.2844
# 4 -6.6309 -6.9378 -13.8479 32.0407 0.6248 -0.9423
# 5 14.6329 2.6394 13.9431 0.6248 31.7785 1.6189
# 6 -4.6026 -18.3346 -7.2844 -0.9423 1.6189 18.3471
#
#
#
# Elastic Compliance Matrix: (Units=1/GPa)
#
#
# Indices 1 2 3 4 5 6 
#
# 1 0.018876 0.014255 -0.014004 0.001436 -0.004467 0.013888
# 2 0.014255 0.049949 -0.015896 0.008436 -0.006358 0.048174
# 3 -0.014004 -0.015896 0.025141 0.004319 -0.002892 -0.008939
# 4 0.001436 0.008436 0.004319 0.035666 -0.004608 0.012744
# 5 -0.004467 -0.006358 -0.002892 -0.004608 0.036025 -0.012038
# 6 0.013888 0.048174 -0.008939 0.012744 -0.012038 0.104298
#
#
# Mechanical properties :
#
#
# Convention : Reuss Voigt Hill
#
# Bulk Modulus (GPa) = 15.95486 43.64727 29.80107
# Shear Modulus (GPa) = 15.52133 27.52260 21.52197
#
# Velocity S-wave (km/s) = 2.75299 3.66593 3.24176
# Velocity P-wave (km/s) = 4.23035 6.26350 5.34450
#
# Compressibility (1/GPa) = 0.06267681
#
# Stress axis : x y z
#
# Youngs Moduli (GPa) = 52.97796 20.02032 39.77493
#
# Poissons Ratio (x) = -0.28539 0.55702
# Poissons Ratio (y) = -0.75521 0.63225
# Poissons Ratio (z) = 0.74192 0.31824
#
# Static dielectric constant tensor:
#      x y z
#    x 1.695930 -0.022640 0.006150 
#    y -0.022640 1.741040 0.014230 
#    z 0.006150 0.014230 1.744460 
# 
# From -- ./inp_files/184803.got.cif
#   From: 2010.05.17/outbox.cif.g08.bks.cpg/sg2_93_cif.got.tgz:184803.got - 2010.06.03 11:33:40.
