data_PCOD9010703
_publ_section_title
;
Structure prediction by ZEFSAII (Michael W. Deem and Ramdas Pophale) SiO2 
 PCOD9010703
Probable space group: P -1
;
_chemical_formula_sum "Si O2"
_cell_formula_units_Z 12
_cell_length_a 9.795404
_cell_length_b 6.627654
_cell_length_c 9.267063
_cell_angle_alpha 59.069815
_cell_angle_beta 60.332646
_cell_angle_gamma 87.655670
_cell_volume 429.628523
_symmetry_space_group_name_H-M "P -1"
_symmetry_group_IT_number 2
_symmetry_cell_setting 'triclinic'
loop_
_space_group_symop_operation_xyz
x,y,z
-x,-y,-z
loop_
_atom_site_type_symbol
_atom_site_label
_atom_site_fract_x
_atom_site_fract_y
_atom_site_fract_z
Si Si1 0.588106 0.685218 0.078729
Si Si2 0.905393 0.335507 0.977675
Si Si3 0.698885 0.317001 0.575425
Si Si4 0.056913 0.279994 0.421817
Si Si5 0.626643 0.813972 0.674361
Si Si6 0.215086 0.186585 0.796442
O O1 0.431735 0.751897 0.202928
O O2 0.534219 0.387317 0.223486
O O3 0.736270 0.806178 0.063189
O O4 0.619001 0.764845 0.869465
O O5 0.866471 0.522535 0.816186
O O6 0.038122 0.232457 0.861562
O O7 0.000000 0.500000 0.000000
O O8 0.776860 0.072883 0.175990
O O9 0.882772 0.329998 0.532562
O O10 0.678488 0.559550 0.419965
O O11 0.655953 0.103705 0.553790
O O12 0.213461 0.261490 0.439354
O O13 0.000000 0.000000 0.500000
#
# Coordination Sequence:
#
# PCOD9010703 Si02
#       6
#     2   2   2   2   2   2
#     4  11  23  40  61  92 130 165 206 252 310 371
#     4  10  21  40  64  89 122 161 204 256 311 367
#     4  10  22  40  63  92 126 162 207 260 308 362
#     4   9  20  40  63  90 120 159 209 253 302 362
#     4  10  23  41  63  92 126 169 208 250 308 367
#     4  10  23  39  61  94 123 160 208 254 309 369
#
# _framework density 27.931107000000001
#
# number of rings (size 3 to 8) (size 9 to 14) (size 15 to 20)
#    0.000    2.000    0.000    2.000    0.000   10.667 
#    0.000    8.333    0.000    0.000    0.000    0.000 
#    0.000    0.000    0.000    0.000    0.000    0.000 
#
# Total GULP energy -67127.273970 kJ/mol
# GULP energy per Si atom -5593.939498 kJ/mol
# Density = 2.786753 g / cm^3
# Si number density = 27.931107 Si / 1000 Ang^3
#
#
#
# Elastic Constant Matrix: (Units=GPa)
#
#
# Indices 1 2 3 4 5 6 
#
# 1 65.8998 48.3584 15.8206 -21.7870 -0.2854 5.9739
# 2 48.3584 186.2056 64.3783 -37.0250 9.4197 -6.1929
# 3 15.8206 64.3783 93.7798 -25.3864 12.7692 -15.8534
# 4 -21.7870 -37.0250 -25.3864 71.0193 -3.9761 -15.8938
# 5 -0.2854 9.4197 12.7692 -3.9761 39.3128 7.2142
# 6 5.9739 -6.1929 -15.8534 -15.8938 7.2142 63.6014
#
#
#
# Elastic Compliance Matrix: (Units=1/GPa)
#
#
# Indices 1 2 3 4 5 6 
#
# 1 0.019868 -0.004720 0.000322 0.003498 0.001814 -0.001577
# 2 -0.004720 0.008476 -0.004440 0.001485 -0.000583 0.000599
# 3 0.000322 -0.004440 0.016452 0.004589 -0.004792 0.005329
# 4 0.003498 0.001485 0.004589 0.018805 -0.000978 0.005770
# 5 0.001814 -0.000583 -0.004792 -0.000978 0.027934 -0.004834
# 6 -0.001577 0.000599 0.005329 0.005770 -0.004834 0.019248
#
#
# Mechanical properties :
#
#
# Convention : Reuss Voigt Hill
#
# Bulk Modulus (GPa) = 36.87183 66.99999 51.93591
# Shear Modulus (GPa) = 36.36376 49.27523 42.81949
#
# Velocity S-wave (km/s) = 3.61211 4.20476 3.91965
# Velocity P-wave (km/s) = 5.53409 6.90022 6.25456
#
# Compressibility (1/GPa) = 0.02712097
#
# Stress axis : x y z
#
# Youngs Moduli (GPa) = 50.33211 117.98272 60.78172
#
# Poissons Ratio (x) = 0.55684 -0.01955
# Poissons Ratio (y) = 0.23755 0.26984
# Poissons Ratio (z) = -0.01619 0.52379
#
# Static dielectric constant tensor:
#      x y z
#    x 2.177190 0.037880 -0.079970 
#    y 0.037880 2.276440 -0.090710 
#    z -0.079970 -0.090710 2.377500 
# 
# From -- ./inp_files/408138.got.cif
#   From: 2010.05.17/outbox.cif.g08.bks.cpg/sg2_205_cif.got.tgz:408138.got - 2010.06.03 11:33:40.
