data_PCOD9010932
_publ_section_title
;
Structure prediction by ZEFSAII (Michael W. Deem and Ramdas Pophale) SiO2 
 PCOD9010932
Probable space group: P -1
;
_chemical_formula_sum "Si O2"
_cell_formula_units_Z 14
_cell_length_a 5.451537
_cell_length_b 16.771350
_cell_length_c 22.748956
_cell_angle_alpha 21.226103
_cell_angle_beta 121.222139
_cell_angle_gamma 127.022126
_cell_volume 594.563261
_symmetry_space_group_name_H-M "P -1"
_symmetry_group_IT_number 2
_symmetry_cell_setting 'triclinic'
loop_
_space_group_symop_operation_xyz
x,y,z
-x,-y,-z
loop_
_atom_site_type_symbol
_atom_site_label
_atom_site_fract_x
_atom_site_fract_y
_atom_site_fract_z
Si Si1 0.617213 0.471496 0.762953
Si Si2 0.612651 0.803461 0.229097
Si Si3 0.209357 0.058398 0.185232
Si Si4 0.712506 0.476417 0.902261
Si Si5 0.872109 0.800268 0.806489
Si Si6 0.924171 0.186202 0.914498
Si Si7 0.553906 0.720508 0.469921
O O1 0.774637 0.557098 0.787109
O O2 0.812291 0.348637 0.834072
O O3 0.561793 0.652935 0.585741
O O4 0.272572 0.303020 0.856306
O O5 0.295487 0.836283 0.154062
O O6 0.528778 0.522603 0.409892
O O7 0.835306 0.952970 0.205872
O O8 0.820225 0.934910 0.107950
O O9 0.306941 0.835249 0.344793
O O10 0.343550 0.181959 0.179396
O O11 0.378501 0.261297 0.019401
O O12 0.734176 0.685267 0.806642
O O13 0.950709 0.358706 0.034724
O O14 0.113227 0.070704 0.642862
#
# Coordination Sequence:
#
# PCOD9010932 Si02
#       7
#     2   2   2   2   2   2   2
#     4  11  23  45  68  99 132 171 221 270 326 386
#     4  10  21  40  64  96 131 175 211 270 323 390
#     4  11  21  42  64  96 127 175 216 268 327 392
#     4  10  22  42  70  90 125 171 227 273 320 382
#     4  10  23  43  63  96 128 169 222 273 324 389
#     4  10  23  41  66 102 131 170 222 267 319 393
#     4  10  25  39  60  96 139 167 212 268 333 390
#
# _framework density 23.546695
#
# number of rings (size 3 to 8) (size 9 to 14) (size 15 to 20)
#    0.000    1.714    1.429    1.714    4.000    6.286 
#   10.286    0.714    0.000    0.000    0.000    0.000 
#    0.000    0.000    0.000    0.000    0.000    0.000 
#
# Total GULP energy -78239.457519 kJ/mol
# GULP energy per Si atom -5588.532680 kJ/mol
# Density = 2.349310 g / cm^3
# Si number density = 23.546695 Si / 1000 Ang^3
#
#
#
# Elastic Constant Matrix: (Units=GPa)
#
#
# Indices 1 2 3 4 5 6 
#
# 1 74.2733 20.2660 12.5887 -0.2909 -3.8823 -12.4319
# 2 20.2660 128.5094 28.4777 0.5756 -2.0345 -25.7257
# 3 12.5887 28.4777 83.5373 -5.3944 -5.8212 -10.0227
# 4 -0.2909 0.5756 -5.3944 25.2027 -10.6185 -5.0330
# 5 -3.8823 -2.0345 -5.8212 -10.6185 17.2326 0.9506
# 6 -12.4319 -25.7257 -10.0227 -5.0330 0.9506 34.0405
#
#
#
# Elastic Compliance Matrix: (Units=1/GPa)
#
#
# Indices 1 2 3 4 5 6 
#
# 1 0.014941 -0.001199 -0.000799 0.002819 0.004437 0.004608
# 2 -0.001199 0.009755 -0.002344 0.000561 0.000087 0.006325
# 3 -0.000799 -0.002344 0.014344 0.007422 0.008796 0.003012
# 4 0.002819 0.000561 0.007422 0.060318 0.039744 0.011447
# 5 0.004437 0.000087 0.008796 0.039744 0.086074 0.007749
# 6 0.004608 0.006325 0.003012 0.011447 0.007749 0.038203
#
#
# Mechanical properties :
#
#
# Convention : Reuss Voigt Hill
#
# Bulk Modulus (GPa) = 32.94192 45.44276 39.19234
# Shear Modulus (GPa) = 20.62414 30.29433 25.45923
#
# Velocity S-wave (km/s) = 2.96274 3.59076 3.29176
# Velocity P-wave (km/s) = 5.07190 6.04420 5.57927
#
# Compressibility (1/GPa) = 0.03035646
#
# Stress axis : x y z
#
# Youngs Moduli (GPa) = 66.93182 102.51184 69.71770
#
# Poissons Ratio (x) = 0.12292 0.05568
# Poissons Ratio (y) = 0.08026 0.16339
# Poissons Ratio (z) = 0.05345 0.24025
#
# Static dielectric constant tensor:
#      x y z
#    x 1.901910 -0.017040 -0.002680 
#    y -0.017040 1.990740 0.001770 
#    z -0.002680 0.001770 1.867360 
# 
# From -- ./inp_files/63333.got.cif
#   From: 2010.05.17/outbox.cif.g08.bks.cpg/sg2_32_cif.got.tgz:63333.got - 2010.06.03 11:33:40.
