data_PCOD9010739
_publ_section_title
;
Structure prediction by ZEFSAII (Michael W. Deem and Ramdas Pophale) SiO2 
 PCOD9010739
Probable space group: P -1
;
_chemical_formula_sum "Si O2"
_cell_formula_units_Z 14
_cell_length_a 9.562327
_cell_length_b 14.964870
_cell_length_c 8.073623
_cell_angle_alpha 102.122397
_cell_angle_beta 117.964987
_cell_angle_gamma 36.147769
_cell_volume 569.504173
_symmetry_space_group_name_H-M "P -1"
_symmetry_group_IT_number 2
_symmetry_cell_setting 'triclinic'
loop_
_space_group_symop_operation_xyz
x,y,z
-x,-y,-z
loop_
_atom_site_type_symbol
_atom_site_label
_atom_site_fract_x
_atom_site_fract_y
_atom_site_fract_z
Si Si1 0.352738 0.318715 0.747590
Si Si2 0.179900 0.159478 0.994799
Si Si3 0.142978 0.956369 0.891931
Si Si4 0.199279 0.679521 0.454821
Si Si5 0.644330 0.199238 0.524171
Si Si6 0.324852 0.114435 0.607094
Si Si7 0.908378 0.608285 0.836833
O O1 0.493608 0.295812 0.654191
O O2 0.337371 0.218239 0.662948
O O3 0.068245 0.496300 0.720271
O O4 0.552824 0.227906 0.986037
O O5 0.044364 0.305703 0.084857
O O6 0.496875 0.010583 0.184418
O O7 0.136490 0.070105 0.932688
O O8 0.017510 0.260988 0.774661
O O9 0.933607 0.016048 0.663881
O O10 0.000000 0.000000 0.000000
O O11 0.500000 0.500000 0.500000
O O12 0.262459 0.755364 0.499906
O O13 0.000608 0.758124 0.533422
O O14 0.420384 0.249655 0.317543
O O15 0.500000 0.000000 0.500000
O O16 0.000000 0.500000 0.000000
#
# Coordination Sequence:
#
# PCOD9010739 Si02
#       7
#     2   2   2   2   2   2   2
#     4  10  21  42  67  91 130 177 220 276 338 400
#     4  10  22  41  66  95 131 179 224 266 333 411
#     4   8  18  40  65  88 119 164 218 274 327 381
#     4  11  23  43  67  97 134 175 222 282 334 386
#     4  10  21  40  64  90 125 170 216 272 332 384
#     4  11  23  43  70  99 130 176 232 276 331 411
#     4  12  24  39  61  98 138 177 221 272 334 407
#
# _framework density 24.582787
#
# number of rings (size 3 to 8) (size 9 to 14) (size 15 to 20)
#    0.000    1.714    0.000    4.286    0.000    3.429 
#    0.000   30.714    0.000    0.000    0.000    0.000 
#    0.000    0.000    0.000    0.000    0.000    0.000 
#
# Total GULP energy -78016.015453 kJ/mol
# GULP energy per Si atom -5572.572532 kJ/mol
# Density = 2.452684 g / cm^3
# Si number density = 24.582787 Si / 1000 Ang^3
#
#
#
# Elastic Constant Matrix: (Units=GPa)
#
#
# Indices 1 2 3 4 5 6 
#
# 1 84.8316 34.9394 12.5707 -2.6199 5.9751 -37.3753
# 2 34.9394 135.4845 35.3308 -6.1075 12.9055 -26.7192
# 3 12.5707 35.3308 101.0852 -19.9669 6.9250 -12.8922
# 4 -2.6199 -6.1075 -19.9669 38.5698 -2.1821 1.9764
# 5 5.9751 12.9055 6.9250 -2.1821 24.5145 -8.0896
# 6 -37.3753 -26.7192 -12.8922 1.9764 -8.0896 27.4896
#
#
#
# Elastic Compliance Matrix: (Units=1/GPa)
#
#
# Indices 1 2 3 4 5 6 
#
# 1 0.030636 -0.000228 0.001630 0.001015 0.006848 0.044139
# 2 -0.000228 0.009692 -0.002306 -0.000168 -0.001946 0.007469
# 3 0.001630 -0.002306 0.012345 0.005845 -0.000428 0.005218
# 4 0.001015 -0.000168 0.005845 0.028963 0.001536 0.002327
# 5 0.006848 -0.001946 -0.000428 0.001536 0.047349 0.021042
# 6 0.044139 0.007469 0.005218 0.002327 0.021042 0.112121
#
#
# Mechanical properties :
#
#
# Convention : Reuss Voigt Hill
#
# Bulk Modulus (GPa) = 19.65950 54.12036 36.88993
# Shear Modulus (GPa) = 19.24055 34.01880 26.62967
#
# Velocity S-wave (km/s) = 2.80068 3.72404 3.29487
# Velocity P-wave (km/s) = 4.29803 6.36826 5.43267
#
# Compressibility (1/GPa) = 0.05086600
#
# Stress axis : x y z
#
# Youngs Moduli (GPa) = 32.64131 103.18103 81.00166
#
# Poissons Ratio (x) = 0.02348 -0.13206
# Poissons Ratio (y) = 0.00743 0.18682
# Poissons Ratio (z) = -0.05322 0.23798
#
# Static dielectric constant tensor:
#      x y z
#    x 2.010890 -0.077040 -0.086410 
#    y -0.077040 1.952390 -0.043270 
#    z -0.086410 -0.043270 2.106690 
# 
# From -- ./inp_files/207961.got.cif
#   From: 2010.05.17/outbox.cif.g08.bks.cpg/sg2_104_cif.got.tgz:207961.got - 2010.06.03 11:33:40.
