data_PCOD9010252
_publ_section_title
;
Structure prediction by ZEFSAII (Michael W. Deem and Ramdas Pophale) SiO2 
 PCOD9010252
Probable space group: P -1
;
_chemical_formula_sum "Si O2"
_cell_formula_units_Z 12
_cell_length_a 14.189012
_cell_length_b 12.906678
_cell_length_c 6.838144
_cell_angle_alpha 44.253754
_cell_angle_beta 76.853745
_cell_angle_gamma 48.704999
_cell_volume 580.318996
_symmetry_space_group_name_H-M "P -1"
_symmetry_group_IT_number 2
_symmetry_cell_setting 'triclinic'
loop_
_space_group_symop_operation_xyz
x,y,z
-x,-y,-z
loop_
_atom_site_type_symbol
_atom_site_label
_atom_site_fract_x
_atom_site_fract_y
_atom_site_fract_z
Si Si1 0.790096 0.306135 0.713406
Si Si2 0.948529 0.969323 0.755472
Si Si3 0.402985 0.728668 0.131347
Si Si4 0.349707 0.256791 0.688215
Si Si5 0.743773 0.931092 0.905591
Si Si6 0.502570 0.157580 0.388691
O O1 0.721214 0.237742 0.939157
O O2 0.683231 0.564737 0.404781
O O3 0.841949 0.192493 0.631218
O O4 0.922065 0.205699 0.920145
O O5 0.870167 0.901946 0.838689
O O6 0.000000 0.000000 0.500000
O O7 0.500000 0.500000 0.500000
O O8 0.337400 0.906348 0.089543
O O9 0.484813 0.729038 0.930028
O O10 0.368619 0.303365 0.400509
O O11 0.230541 0.266697 0.769186
O O12 0.500000 0.000000 0.000000
O O13 0.639870 0.031197 0.633084
O O14 0.500000 0.000000 0.500000
#
# Coordination Sequence:
#
# PCOD9010252 Si02
#       6
#     2   2   2   2   2   2
#     4  10  23  40  64  90 127 159 212 260 315 362
#     4  10  22  44  64  87 119 169 218 261 302 369
#     4  11  22  37  62  94 124 165 205 260 315 375
#     4  10  21  40  62  93 132 160 198 262 321 376
#     4  10  22  39  61  87 127 162 209 259 313 369
#     4  11  22  37  62  91 128 168 204 251 320 381
#
# _framework density 20.678283
#
# number of rings (size 3 to 8) (size 9 to 14) (size 15 to 20)
#    0.000    1.667    1.667    3.000    2.333    6.000 
#    0.000    0.833    0.000    0.000    0.000    0.000 
#    0.000    0.000    0.000    0.000    0.000    0.000 
#
# Total GULP energy -66954.484145 kJ/mol
# GULP energy per Si atom -5579.540345 kJ/mol
# Density = 2.063122 g / cm^3
# Si number density = 20.678283 Si / 1000 Ang^3
#
#
#
# Elastic Constant Matrix: (Units=GPa)
#
#
# Indices 1 2 3 4 5 6 
#
# 1 191.8850 40.2602 62.1020 21.1512 -32.9885 11.7810
# 2 40.2602 82.1195 43.2383 3.9631 -28.4687 4.6393
# 3 62.1020 43.2383 91.8428 22.0134 -38.1049 -6.0487
# 4 21.1512 3.9631 22.0134 36.4376 -8.2797 -13.6471
# 5 -32.9885 -28.4687 -38.1049 -8.2797 49.6268 9.1417
# 6 11.7810 4.6393 -6.0487 -13.6471 9.1417 34.0269
#
#
#
# Elastic Compliance Matrix: (Units=1/GPa)
#
#
# Indices 1 2 3 4 5 6 
#
# 1 0.007563 -0.000668 -0.003182 -0.003803 0.002543 -0.005302
# 2 -0.000668 0.018100 -0.006233 0.002031 0.006268 -0.004214
# 3 -0.003182 -0.006233 0.022160 -0.008708 0.009920 -0.000267
# 4 -0.003803 0.002031 -0.008708 0.039935 -0.004465 0.016708
# 5 0.002543 0.006268 0.009920 -0.004465 0.034333 -0.010986
# 6 -0.005302 -0.004214 -0.000267 0.016708 -0.010986 0.041404
#
#
# Mechanical properties :
#
#
# Convention : Reuss Voigt Hill
#
# Bulk Modulus (GPa) = 36.15764 73.00537 54.58150
# Shear Modulus (GPa) = 25.92275 38.70139 32.31207
#
# Velocity S-wave (km/s) = 3.54449 4.33089 3.95727
# Velocity P-wave (km/s) = 5.85449 7.77115 6.87989
#
# Compressibility (1/GPa) = 0.02765667
#
# Stress axis : x y z
#
# Youngs Moduli (GPa) = 132.21496 55.24905 45.12613
#
# Poissons Ratio (x) = 0.03689 0.14361
# Poissons Ratio (y) = 0.08828 0.28129
# Poissons Ratio (z) = 0.42075 0.34438
#
# Static dielectric constant tensor:
#      x y z
#    x 1.853570 -0.026450 0.028630 
#    y -0.026450 1.751760 -0.011450 
#    z 0.028630 -0.011450 1.766870 
# 
# From -- ./inp_files/34496.got.cif
#   From: 2010.05.17/outbox.cif.g08.bks.cpg/sg2_18_cif.got.tgz:34496.got - 2010.06.03 11:33:40.
