data_PCOD9010425
_publ_section_title
;
Structure prediction by ZEFSAII (Michael W. Deem and Ramdas Pophale) SiO2 
 PCOD9010425
Probable space group: P -1
;
_chemical_formula_sum "Si O2"
_cell_formula_units_Z 15
_cell_length_a 6.757109
_cell_length_b 11.300229
_cell_length_c 7.906332
_cell_angle_alpha 77.584681
_cell_angle_beta 68.648450
_cell_angle_gamma 83.163903
_cell_volume 548.567004
_symmetry_space_group_name_H-M "P -1"
_symmetry_group_IT_number 2
_symmetry_cell_setting 'triclinic'
loop_
_space_group_symop_operation_xyz
x,y,z
-x,-y,-z
loop_
_atom_site_type_symbol
_atom_site_label
_atom_site_fract_x
_atom_site_fract_y
_atom_site_fract_z
Si Si1 0.925709 0.141371 0.972460
Si Si2 0.675066 0.418331 0.573310
Si Si3 0.243867 0.704595 0.726473
Si Si4 0.331272 0.381747 0.238683
Si Si5 0.500000 0.000000 0.000000
Si Si6 0.304836 0.927351 0.447642
Si Si7 0.535746 0.762561 0.062597
Si Si8 0.126240 0.162818 0.561242
O O1 0.668636 0.152093 0.983846
O O2 0.049923 0.199098 0.760672
O O3 0.909383 0.224981 0.117266
O O4 0.000000 0.000000 0.000000
O O5 0.500000 0.500000 0.500000
O O6 0.830192 0.372924 0.386926
O O7 0.755661 0.495129 0.683105
O O8 0.564126 0.305381 0.729495
O O9 0.413013 0.621982 0.803989
O O10 0.378160 0.810549 0.568417
O O11 0.230737 0.271836 0.401941
O O12 0.341678 0.339979 0.054354
O O13 0.417601 0.972223 0.232174
O O14 0.672104 0.878818 0.004359
O O15 0.078821 0.879695 0.464951
O O16 0.268862 0.038874 0.552665
#
# Coordination Sequence:
#
# PCOD9010425 Si02
#       8
#     2   2   2   2   1   2   2   2
#     4  11  22  38  60  93 133 164 201 261 332 382
#     4  10  21  43  65  92 125 170 222 270 301 373
#     4  10  21  40  63  90 124 168 216 263 313 382
#     4  10  23  39  65  93 122 168 218 262 319 373
#     4  12  20  36  66  94 120 166 206 264 326 384
#     4  11  22  38  61  89 133 165 205 263 329 374
#     4  11  22  40  65  96 127 164 214 263 319 388
#     4  11  22  39  57  95 129 167 204 263 323 393
#
# _framework density 27.343973999999999
#
# number of rings (size 3 to 8) (size 9 to 14) (size 15 to 20)
#    0.000    1.333    5.333    0.400    0.000    1.600 
#    0.000    3.333    0.000    0.000    0.000    0.000 
#    0.000    0.000    0.000    0.000    0.000    0.000 
#
# Total GULP energy -83705.086958 kJ/mol
# GULP energy per Si atom -5580.339131 kJ/mol
# Density = 2.728174 g / cm^3
# Si number density = 27.343974 Si / 1000 Ang^3
#
#
#
# Elastic Constant Matrix: (Units=GPa)
#
#
# Indices 1 2 3 4 5 6 
#
# 1 78.2886 24.5980 7.5605 4.3364 -1.6231 -5.2076
# 2 24.5980 146.2532 59.2212 40.2405 8.9403 -6.0788
# 3 7.5605 59.2212 175.8689 43.1408 -4.3530 10.2317
# 4 4.3364 40.2405 43.1408 81.1369 -8.6550 7.9613
# 5 -1.6231 8.9403 -4.3530 -8.6550 18.8857 6.1122
# 6 -5.2076 -6.0788 10.2317 7.9613 6.1122 29.9412
#
#
#
# Elastic Compliance Matrix: (Units=1/GPa)
#
#
# Indices 1 2 3 4 5 6 
#
# 1 0.013676 -0.002628 0.000131 0.000644 0.002374 0.001144
# 2 -0.002628 0.010839 -0.002821 -0.005483 -0.010566 0.006322
# 3 0.000131 -0.002821 0.007354 -0.001855 0.003237 -0.003230
# 4 0.000644 -0.005483 -0.001855 0.018165 0.013095 -0.007870
# 5 0.002374 -0.010566 0.003237 0.013095 0.071685 -0.020954
# 6 0.001144 0.006322 -0.003230 -0.007870 -0.020954 0.042356
#
#
# Mechanical properties :
#
#
# Convention : Reuss Voigt Hill
#
# Bulk Modulus (GPa) = 47.09732 64.79668 55.94700
# Shear Modulus (GPa) = 27.50459 46.59483 37.04971
#
# Velocity S-wave (km/s) = 3.17499 4.13246 3.68496
# Velocity P-wave (km/s) = 5.54095 6.82041 6.21370
#
# Compressibility (1/GPa) = 0.02123263
#
# Stress axis : x y z
#
# Youngs Moduli (GPa) = 73.12104 92.25911 135.98668
#
# Poissons Ratio (x) = 0.24245 -0.01786
# Poissons Ratio (y) = 0.19216 0.38367
# Poissons Ratio (z) = -0.00960 0.26030
#
# Static dielectric constant tensor:
#      x y z
#    x 1.953330 -0.419210 0.104200 
#    y -0.419210 1.772280 0.151690 
#    z 0.104200 0.151690 2.030000 
# 
# From -- ./inp_files/169224.got.cif
#   From: 2010.05.17/outbox.cif.g08.bks.cpg/sg2_85_cif.got.tgz:169224.got - 2010.06.03 11:33:40.
