data_PCOD9010935
_publ_section_title
;
Structure prediction by ZEFSAII (Michael W. Deem and Ramdas Pophale) SiO2 
 PCOD9010935
Probable space group: P -1
;
_chemical_formula_sum "Si O2"
_cell_formula_units_Z 16
_cell_length_a 7.725605
_cell_length_b 9.711838
_cell_length_c 14.103896
_cell_angle_alpha 84.449940
_cell_angle_beta 43.831400
_cell_angle_gamma 75.905963
_cell_volume 705.865289
_symmetry_space_group_name_H-M "P -1"
_symmetry_group_IT_number 2
_symmetry_cell_setting 'triclinic'
loop_
_space_group_symop_operation_xyz
x,y,z
-x,-y,-z
loop_
_atom_site_type_symbol
_atom_site_label
_atom_site_fract_x
_atom_site_fract_y
_atom_site_fract_z
Si Si1 0.604612 0.455212 0.152656
Si Si2 0.875876 0.625451 0.915805
Si Si3 0.210644 0.098135 0.622509
Si Si4 0.616898 0.144674 0.137384
Si Si5 0.926207 0.934611 0.879175
Si Si6 0.099430 0.142353 0.449838
Si Si7 0.177361 0.401545 0.673483
Si Si8 0.294892 0.562741 0.444524
O O1 0.588229 0.311593 0.115321
O O2 0.367104 0.502934 0.315081
O O3 0.870047 0.411678 0.113170
O O4 0.640816 0.585998 0.066172
O O5 0.843086 0.790916 0.894551
O O6 0.947634 0.514469 0.808516
O O7 0.138958 0.163303 0.543647
O O8 0.182558 0.235861 0.691727
O O9 0.500000 0.000000 0.500000
O O10 0.030775 0.003811 0.742899
O O11 0.834915 0.104991 0.137072
O O12 0.358439 0.122341 0.288209
O O13 0.708442 0.045757 0.016975
O O14 0.896546 0.282390 0.484447
O O15 0.000000 0.000000 0.500000
O O16 0.197381 0.451583 0.554979
O O17 0.436517 0.421162 0.619171
#
# Coordination Sequence:
#
# PCOD9010935 Si02
#       8
#     2   2   2   2   2   2   2   2
#     4   9  18  36  61  93 125 166 213 265 321 382
#     4   9  19  35  63  94 125 162 217 269 320 375
#     4  12  24  41  67  97 132 170 224 267 324 390
#     4  10  21  40  64  96 132 171 220 269 326 382
#     4  10  22  38  67  97 128 170 222 274 316 391
#     4  12  27  42  64  99 139 174 212 273 337 387
#     4  10  22  40  68  95 125 170 219 271 314 393
#     4  10  23  39  66  94 130 168 218 265 330 383
#
# _framework density 22.667214999999999
#
# number of rings (size 3 to 8) (size 9 to 14) (size 15 to 20)
#    0.000    1.750    1.250    2.250    8.750    4.000 
#    0.000    1.875    0.000    3.000    0.000    0.000 
#    0.000    0.000    0.000    0.000    0.000    0.000 
#
# Total GULP energy -89523.801259 kJ/mol
# GULP energy per Si atom -5595.237579 kJ/mol
# Density = 2.261562 g / cm^3
# Si number density = 22.667215 Si / 1000 Ang^3
#
#
#
# Elastic Constant Matrix: (Units=GPa)
#
#
# Indices 1 2 3 4 5 6 
#
# 1 28.3623 19.0982 14.9488 3.2591 -4.4051 -0.2920
# 2 19.0982 188.3664 74.2377 -3.4171 3.6486 27.2132
# 3 14.9488 74.2377 153.4591 -1.4612 14.9046 6.4611
# 4 3.2591 -3.4171 -1.4612 43.1454 1.3181 3.0932
# 5 -4.4051 3.6486 14.9046 1.3181 13.8649 6.3369
# 6 -0.2920 27.2132 6.4611 3.0932 6.3369 34.1787
#
#
#
# Elastic Compliance Matrix: (Units=1/GPa)
#
#
# Indices 1 2 3 4 5 6 
#
# 1 0.043410 -0.003052 -0.004745 -0.004319 0.019926 0.000395
# 2 -0.003052 0.007917 -0.003607 0.001084 0.003657 -0.006424
# 3 -0.004745 -0.003607 0.009821 0.000558 -0.012665 0.003272
# 4 -0.004319 0.001084 0.000558 0.023894 -0.003366 -0.002544
# 5 0.019926 0.003657 -0.012665 -0.003366 0.099914 -0.018567
# 6 0.000395 -0.006424 0.003272 -0.002544 -0.018567 0.037430
#
#
# Mechanical properties :
#
#
# Convention : Reuss Voigt Hill
#
# Bulk Modulus (GPa) = 26.08331 65.19524 45.63928
# Shear Modulus (GPa) = 19.38190 35.69802 27.53996
#
# Velocity S-wave (km/s) = 2.92732 3.97277 3.48942
# Velocity P-wave (km/s) = 4.79141 7.06175 6.03431
#
# Compressibility (1/GPa) = 0.03833869
#
# Stress axis : x y z
#
# Youngs Moduli (GPa) = 23.03633 126.31619 101.82235
#
# Poissons Ratio (x) = 0.38558 0.48315
# Poissons Ratio (y) = 0.07032 0.36726
# Poissons Ratio (z) = 0.10931 0.45560
#
# Static dielectric constant tensor:
#      x y z
#    x 1.829580 0.064760 0.046880 
#    y 0.064760 1.776800 0.005380 
#    z 0.046880 0.005380 1.796750 
# 
# From -- ./inp_files/332846.got.cif
#   From: 2010.05.17/outbox.cif.g08.bks.cpg/sg2_167_cif.got.tgz:332846.got - 2010.06.03 11:33:40.
