data_PCOD9010474
_publ_section_title
;
Structure prediction by ZEFSAII (Michael W. Deem and Ramdas Pophale) SiO2 
 PCOD9010474
Probable space group: P -1
;
_chemical_formula_sum "Si O2"
_cell_formula_units_Z 14
_cell_length_a 12.058459
_cell_length_b 12.673106
_cell_length_c 12.465006
_cell_angle_alpha 148.323658
_cell_angle_beta 91.722598
_cell_angle_gamma 110.411884
_cell_volume 700.843129
_symmetry_space_group_name_H-M "P -1"
_symmetry_group_IT_number 2
_symmetry_cell_setting 'triclinic'
loop_
_space_group_symop_operation_xyz
x,y,z
-x,-y,-z
loop_
_atom_site_type_symbol
_atom_site_label
_atom_site_fract_x
_atom_site_fract_y
_atom_site_fract_z
Si Si1 0.662040 0.628041 0.065334
Si Si2 0.508598 0.882102 0.541461
Si Si3 0.277254 0.899434 0.647824
Si Si4 0.439851 0.143260 0.089589
Si Si5 0.665793 0.797768 0.643977
Si Si6 0.986524 0.375667 0.068426
Si Si7 0.169725 0.504363 0.969106
O O1 0.773905 0.653628 0.173732
O O2 0.739808 0.911268 0.249685
O O3 0.500000 0.500000 0.000000
O O4 0.608021 0.391382 0.773809
O O5 0.422826 0.967885 0.657196
O O6 0.557065 0.800592 0.569553
O O7 0.670091 0.154044 0.722074
O O8 0.119202 0.572569 0.333235
O O9 0.325904 0.986869 0.847990
O O10 0.591494 0.480442 0.360721
O O11 0.351501 0.137898 0.181048
O O12 0.500000 0.000000 0.000000
O O13 0.842186 0.053596 0.826108
O O14 0.918099 0.505562 0.142030
O O15 0.065537 0.394309 0.977733
#
# Coordination Sequence:
#
# PCOD9010474 Si02
#       7
#     2   2   2   2   2   2   2
#     4  12  22  35  64  98 127 172 225 255 305 376
#     4  11  20  40  65  93 133 171 219 258 308 388
#     4  12  23  39  66  99 127 168 221 269 315 377
#     4  11  23  43  71  94 118 168 227 271 316 386
#     4  10  23  44  68  91 127 168 213 271 328 379
#     4  10  23  42  63  95 140 169 204 267 331 378
#     4  10  21  40  63  91 137 181 203 253 322 388
#
# _framework density 19.975940000000001
#
# number of rings (size 3 to 8) (size 9 to 14) (size 15 to 20)
#    0.000    1.143    5.714    1.286    0.000    1.143 
#    2.571    0.714    0.000    0.000    0.000    0.000 
#    0.000    0.000    0.000    0.000    0.000    0.000 
#
# Total GULP energy -78233.031005 kJ/mol
# GULP energy per Si atom -5588.073643 kJ/mol
# Density = 1.993047 g / cm^3
# Si number density = 19.975940 Si / 1000 Ang^3
#
#
#
# Elastic Constant Matrix: (Units=GPa)
#
#
# Indices 1 2 3 4 5 6 
#
# 1 91.4913 34.4186 29.8273 18.0847 2.0375 -11.1107
# 2 34.4186 95.5870 58.4697 16.9277 6.4862 -0.6629
# 3 29.8273 58.4697 91.8159 8.9130 12.7410 -3.6554
# 4 18.0847 16.9277 8.9130 34.5060 -1.7835 -4.9589
# 5 2.0375 6.4862 12.7410 -1.7835 33.1876 8.5554
# 6 -11.1107 -0.6629 -3.6554 -4.9589 8.5554 27.6755
#
#
#
# Elastic Compliance Matrix: (Units=1/GPa)
#
#
# Indices 1 2 3 4 5 6 
#
# 1 0.014255 -0.002999 -0.001907 -0.004865 -0.001071 0.004859
# 2 -0.002999 0.019111 -0.010993 -0.005410 0.001299 -0.003569
# 3 -0.001907 -0.010993 0.019336 0.001615 -0.006018 0.003675
# 4 -0.004865 -0.005410 0.001615 0.034396 0.001606 0.003797
# 5 -0.001071 0.001299 -0.006018 0.001606 0.035395 -0.011848
# 6 0.004859 -0.003569 0.003675 0.003797 -0.011848 0.042826
#
#
# Mechanical properties :
#
#
# Convention : Reuss Voigt Hill
#
# Bulk Modulus (GPa) = 47.83610 58.25837 53.04724
# Shear Modulus (GPa) = 24.49959 29.48574 26.99267
#
# Velocity S-wave (km/s) = 3.50588 3.84612 3.67994
# Velocity P-wave (km/s) = 6.35508 6.99651 6.68350
#
# Compressibility (1/GPa) = 0.02090471
#
# Stress axis : x y z
#
# Youngs Moduli (GPa) = 70.14953 52.32596 51.71648
#
# Poissons Ratio (x) = 0.15690 0.09863
# Poissons Ratio (y) = 0.21034 0.56853
# Poissons Ratio (z) = 0.13379 0.57523
#
# Static dielectric constant tensor:
#      x y z
#    x 1.736110 -0.019010 -0.013720 
#    y -0.019010 1.706960 0.000480 
#    z -0.013720 0.000480 1.723710 
# 
# From -- ./inp_files/28510.got.cif
#   From: 2010.05.17/outbox.cif.g08.bks.cpg/sg2_15_cif.got.tgz:28510.got - 2010.06.03 11:33:40.
