data_PCOD9010266
_publ_section_title
;
Structure prediction by ZEFSAII (Michael W. Deem and Ramdas Pophale) SiO2 
 PCOD9010266
Probable space group: P -1
;
_chemical_formula_sum "Si O2"
_cell_formula_units_Z 16
_cell_length_a 30.282685
_cell_length_b 9.022856
_cell_length_c 12.315692
_cell_angle_alpha 128.254272
_cell_angle_beta 32.354211
_cell_angle_gamma 150.953536
_cell_volume 776.629932
_symmetry_space_group_name_H-M "P -1"
_symmetry_group_IT_number 2
_symmetry_cell_setting 'triclinic'
loop_
_space_group_symop_operation_xyz
x,y,z
-x,-y,-z
loop_
_atom_site_type_symbol
_atom_site_label
_atom_site_fract_x
_atom_site_fract_y
_atom_site_fract_z
Si Si1 0.442899 0.817423 0.724257
Si Si2 0.151045 0.346025 0.210213
Si Si3 0.282566 0.872155 0.600837
Si Si4 0.879401 0.388035 0.770750
Si Si5 0.314686 0.307583 0.594777
Si Si6 0.538356 0.695713 0.115043
Si Si7 0.008654 0.383461 0.111723
Si Si8 0.122814 0.451994 0.543343
O O1 0.391004 0.639835 0.635054
O O2 0.581239 0.958519 0.540726
O O3 0.471798 0.097408 0.792844
O O4 0.299469 0.507233 0.959207
O O5 0.130426 0.428841 0.183354
O O6 0.175516 0.528000 0.345166
O O7 0.002130 0.943074 0.354734
O O8 0.251493 0.692739 0.474906
O O9 0.308035 0.134539 0.624202
O O10 0.136291 0.581942 0.849487
O O11 0.930949 0.509999 0.842775
O O12 0.000000 0.500000 0.500000
O O13 0.709591 0.982773 0.928823
O O14 0.417059 0.424826 0.338034
O O15 0.145930 0.023908 0.774597
O O16 0.500000 0.500000 0.000000
O O17 0.956941 0.500168 0.255157
#
# Coordination Sequence:
#
# PCOD9010266 Si02
#       8
#     2   2   2   2   2   2   2   2
#     4  11  24  43  64  95 136 170 220 264 331 387
#     4  10  22  40  63  91 130 170 212 268 329 378
#     4  11  24  40  67  98 131 171 222 261 332 388
#     4  11  22  41  65  93 126 169 220 264 320 385
#     4  11  23  44  68  95 136 172 217 272 328 384
#     4  11  26  44  65  94 135 177 219 269 328 385
#     4  11  22  41  69  96 129 168 222 265 325 388
#     4  10  21  40  62  94 129 167 217 269 319 386
#
# _framework density 20.601832999999999
#
# number of rings (size 3 to 8) (size 9 to 14) (size 15 to 20)
#    0.000    1.250    1.250    5.250    5.250    4.500 
#    0.000    3.750    0.000    0.000    0.000    0.000 
#    0.000    0.000    0.000    0.000    0.000    0.000 
#
# Total GULP energy -89419.980664 kJ/mol
# GULP energy per Si atom -5588.748791 kJ/mol
# Density = 2.055494 g / cm^3
# Si number density = 20.601833 Si / 1000 Ang^3
#
#
#
# Elastic Constant Matrix: (Units=GPa)
#
#
# Indices 1 2 3 4 5 6 
#
# 1 107.1494 54.2151 28.0792 -9.3461 -2.7999 24.4879
# 2 54.2151 112.2957 28.1413 4.5942 2.1810 28.4090
# 3 28.0792 28.1413 19.2024 -8.3685 -57.9740 -31.3700
# 4 -9.3461 4.5942 -8.3685 34.6460 7.5268 6.7516
# 5 -2.7999 2.1810 -57.9740 7.5268 -6.4265 -34.6283
# 6 24.4879 28.4090 -31.3700 6.7516 -34.6283 7.9668
#
#
#
# Elastic Compliance Matrix: (Units=1/GPa)
#
#
# Indices 1 2 3 4 5 6 
#
# 1 0.013329 -0.006255 0.000475 0.004057 0.004158 -0.002157
# 2 -0.006255 0.012166 0.000433 -0.003891 0.004160 -0.001071
# 3 0.000475 0.000433 0.008665 0.006282 -0.008592 -0.011557
# 4 0.004057 -0.003891 0.006282 0.032851 -0.000497 -0.003858
# 5 0.004158 0.004160 -0.008592 -0.000497 0.010227 -0.016574
# 6 -0.002157 -0.001071 -0.011557 -0.003858 -0.016574 0.021693
#
#
# Mechanical properties :
#
#
# Convention : Reuss Voigt Hill
#
# Bulk Modulus (GPa) = 42.61698 51.05763 46.83731
# Shear Modulus (GPa) = 42.57280 15.78471 29.17875
#
# Velocity S-wave (km/s) = 4.55076 2.77100 3.76748
# Velocity P-wave (km/s) = 6.95295 5.92239 6.45826
#
# Compressibility (1/GPa) = 0.02346483
#
# Stress axis : x y z
#
# Youngs Moduli (GPa) = 75.02661 82.19858 115.41188
#
# Poissons Ratio (x) = 0.51415 -0.05483
# Poissons Ratio (y) = 0.46929 -0.04996
# Poissons Ratio (z) = -0.03564 -0.03558
#
# Static dielectric constant tensor:
#      x y z
#    x 1.732300 0.013670 0.000620 
#    y 0.013670 1.770570 -0.011850 
#    z 0.000620 -0.011850 1.741010 
# 
# From -- ./inp_files/186707.got.cif
#   From: 2010.05.17/outbox.cif.g08.bks.cpg/sg2_94_cif.got.tgz:186707.got - 2010.06.03 11:33:40.
