data_PCOD9010434
_publ_section_title
;
Structure prediction by ZEFSAII (Michael W. Deem and Ramdas Pophale) SiO2 
 PCOD9010434
Probable space group: P -1
;
_chemical_formula_sum "Si O2"
_cell_formula_units_Z 14
_cell_length_a 11.725679
_cell_length_b 19.316335
_cell_length_c 13.582050
_cell_angle_alpha 36.117856
_cell_angle_beta 131.584159
_cell_angle_gamma 157.713716
_cell_volume 637.592851
_symmetry_space_group_name_H-M "P -1"
_symmetry_group_IT_number 2
_symmetry_cell_setting 'triclinic'
loop_
_space_group_symop_operation_xyz
x,y,z
-x,-y,-z
loop_
_atom_site_type_symbol
_atom_site_label
_atom_site_fract_x
_atom_site_fract_y
_atom_site_fract_z
Si Si1 0.848333 0.762082 0.201370
Si Si2 0.298939 0.476967 0.928718
Si Si3 0.296698 0.054012 0.302372
Si Si4 0.249067 0.865712 0.874025
Si Si5 0.991959 0.361819 0.698338
Si Si6 0.094001 0.285524 0.350400
Si Si7 0.956761 0.430869 0.168603
O O1 0.455030 0.492798 0.288384
O O2 0.958624 0.724953 0.238927
O O3 0.001732 0.838464 0.307266
O O4 0.000000 0.000000 0.000000
O O5 0.504734 0.688677 0.884639
O O6 0.238471 0.513641 0.755507
O O7 0.500000 0.500000 0.000000
O O8 0.948934 0.196314 0.088773
O O9 0.588664 0.168117 0.298596
O O10 0.138356 0.945323 0.444931
O O11 0.118395 0.823129 0.742400
O O12 0.626193 0.113483 0.811846
O O13 0.121395 0.647226 0.072544
O O14 0.000000 0.500000 0.500000
O O15 0.140077 0.433821 0.272549
O O16 0.000000 0.500000 0.000000
#
# Coordination Sequence:
#
# PCOD9010434 Si02
#       7
#     2   2   2   2   2   2   2
#     4  12  24  43  67  95 131 180 229 276 332 405
#     4  11  24  44  68  96 132 179 227 275 337 408
#     4  11  23  39  63  95 128 169 220 279 334 394
#     4  10  21  40  63  90 129 178 219 265 332 411
#     4  12  26  44  67 101 137 175 222 282 340 397
#     4  11  21  37  62  97 130 165 219 285 334 382
#     4   9  18  35  60  88 121 164 210 260 323 393
#
# _framework density 21.957587
#
# number of rings (size 3 to 8) (size 9 to 14) (size 15 to 20)
#    0.000    1.143    0.000    9.000    0.000    3.429 
#    0.000    5.714    0.000    0.000    0.000    0.000 
#    0.000    0.000    0.000    0.000    0.000    0.000 
#
# Total GULP energy -77934.948231 kJ/mol
# GULP energy per Si atom -5566.782016 kJ/mol
# Density = 2.190761 g / cm^3
# Si number density = 21.957587 Si / 1000 Ang^3
#
#
#
# Elastic Constant Matrix: (Units=GPa)
#
#
# Indices 1 2 3 4 5 6 
#
# 1 113.7896 40.4585 26.7411 2.9292 0.8787 32.6664
# 2 40.4585 123.3670 30.1853 -6.5226 -8.8086 18.0578
# 3 26.7411 30.1853 81.1702 -4.0813 -15.0523 17.5696
# 4 2.9292 -6.5226 -4.0813 28.1546 -1.0976 -9.1951
# 5 0.8787 -8.8086 -15.0523 -1.0976 25.7585 1.3169
# 6 32.6664 18.0578 17.5696 -9.1951 1.3169 51.2504
#
#
#
# Elastic Compliance Matrix: (Units=1/GPa)
#
#
# Indices 1 2 3 4 5 6 
#
# 1 0.012497 -0.002971 -0.002228 -0.004675 -0.002590 -0.006927
# 2 -0.002971 0.009955 -0.002033 0.002227 0.002442 -0.000580
# 3 -0.002228 -0.002033 0.016322 0.001357 0.009153 -0.003451
# 4 -0.004675 0.002227 0.001357 0.039699 0.002957 0.008777
# 5 -0.002590 0.002442 0.009153 0.002957 0.045373 -0.002983
# 6 -0.006927 -0.000580 -0.003451 0.008777 -0.002983 0.026966
#
#
# Mechanical properties :
#
#
# Convention : Reuss Voigt Hill
#
# Bulk Modulus (GPa) = 41.13522 57.01075 49.07298
# Shear Modulus (GPa) = 28.83851 35.76217 32.30034
#
# Velocity S-wave (km/s) = 3.62798 4.04008 3.83957
# Velocity P-wave (km/s) = 6.02696 6.91256 6.48489
#
# Compressibility (1/GPa) = 0.02431007
#
# Stress axis : x y z
#
# Youngs Moduli (GPa) = 80.01814 100.45480 61.26588
#
# Poissons Ratio (x) = 0.29850 0.13650
# Poissons Ratio (y) = 0.23777 0.12453
# Poissons Ratio (z) = 0.17828 0.20418
#
# Static dielectric constant tensor:
#      x y z
#    x 2.169700 0.128390 -0.222100 
#    y 0.128390 1.846840 -0.026740 
#    z -0.222100 -0.026740 2.303350 
# 
# From -- ./inp_files/524058.got.cif
#   From: 2010.05.17/outbox.cif.g08.bks.cpg/sg2_263_cif.got.tgz:524058.got - 2010.06.03 11:33:40.
