data_PCOD9010111
_publ_section_title
;
Structure prediction by ZEFSAII (Michael W. Deem and Ramdas Pophale) SiO2 
 PCOD9010111
Probable space group: P -1
;
_chemical_formula_sum "Si O2"
_cell_formula_units_Z 16
_cell_length_a 9.086610
_cell_length_b 18.414421
_cell_length_c 22.039342
_cell_angle_alpha 17.113547
_cell_angle_beta 140.712882
_cell_angle_gamma 140.988023
_cell_volume 673.229995
_symmetry_space_group_name_H-M "P -1"
_symmetry_group_IT_number 2
_symmetry_cell_setting 'triclinic'
loop_
_space_group_symop_operation_xyz
x,y,z
-x,-y,-z
loop_
_atom_site_type_symbol
_atom_site_label
_atom_site_fract_x
_atom_site_fract_y
_atom_site_fract_z
Si Si1 0.413404 0.080154 0.547772
Si Si2 0.395988 0.584823 0.548645
Si Si3 0.400943 0.543754 0.998977
Si Si4 0.111674 0.310811 0.896876
Si Si5 0.060829 0.230765 0.218277
Si Si6 0.806364 0.736164 0.476018
Si Si7 0.961824 0.118166 0.685855
Si Si8 0.978868 0.694037 0.267832
O O1 0.451069 0.273020 0.461130
O O2 0.245002 0.162569 0.379331
O O3 0.680105 0.073776 0.614020
O O4 0.302813 0.799844 0.758785
O O5 0.563529 0.568250 0.557997
O O6 0.225113 0.771468 0.320815
O O7 0.245901 0.339531 0.731828
O O8 0.206810 0.302123 0.145993
O O9 0.608894 0.597439 0.072984
O O10 0.500000 0.500000 0.000000
O O11 0.992937 0.549804 0.682763
O O12 0.053477 0.221548 0.879317
O O13 0.020752 0.094026 0.089972
O O14 0.868135 0.981228 0.342979
O O15 0.000000 0.500000 0.000000
O O16 0.841744 0.856574 0.324148
O O17 0.997753 0.400415 0.497962
#
# Coordination Sequence:
#
# PCOD9010111 Si02
#       8
#     2   2   2   2   2   2   2   2
#     4  10  22  41  60  84 124 162 201 245 291 360
#     4  10  21  40  62  86 122 162 197 251 309 351
#     4  11  22  38  62  88 118 162 206 242 293 357
#     4  10  21  40  65  91 120 159 206 249 296 357
#     4  12  25  39  58  88 123 162 199 242 301 357
#     4  11  23  38  59  90 126 154 197 257 304 352
#     4   9  20  40  64  91 119 156 202 248 300 357
#     4   9  20  42  65  85 117 161 207 249 296 361
#
# _framework density 23.766024999999999
#
# number of rings (size 3 to 8) (size 9 to 14) (size 15 to 20)
#    0.000    1.750    0.000    5.250    0.000    7.500 
#    0.000   18.750    0.000    0.000    0.000    0.000 
#    0.000    0.000    0.000    0.000    0.000    0.000 
#
# Total GULP energy -89329.991348 kJ/mol
# GULP energy per Si atom -5583.124459 kJ/mol
# Density = 2.371193 g / cm^3
# Si number density = 23.766025 Si / 1000 Ang^3
#
#
#
# Elastic Constant Matrix: (Units=GPa)
#
#
# Indices 1 2 3 4 5 6 
#
# 1 131.6961 4.3750 13.4531 14.0093 -30.0933 9.8649
# 2 4.3750 34.0290 -14.4779 7.0447 -3.2288 -4.7798
# 3 13.4531 -14.4779 93.5019 28.2725 -12.4617 7.4339
# 4 14.0093 7.0447 28.2725 24.6631 -11.1120 -5.6460
# 5 -30.0933 -3.2288 -12.4617 -11.1120 34.6159 -12.9301
# 6 9.8649 -4.7798 7.4339 -5.6460 -12.9301 23.5942
#
#
#
# Elastic Compliance Matrix: (Units=1/GPa)
#
#
# Indices 1 2 3 4 5 6 
#
# 1 0.009579 0.000315 0.000742 -0.003428 0.007114 -0.001097
# 2 0.000315 0.042875 0.017637 -0.036195 -0.003913 -0.007809
# 3 0.000742 0.017637 0.028480 -0.049192 -0.012294 -0.024220
# 4 -0.003428 -0.036195 -0.049192 0.149059 0.051167 0.073310
# 5 0.007114 -0.003913 -0.012294 0.051167 0.064530 0.047714
# 6 -0.001097 -0.007809 -0.024220 0.073310 0.047714 0.092582
#
#
# Mechanical properties :
#
#
# Convention : Reuss Voigt Hill
#
# Bulk Modulus (GPa) = 8.45140 29.54749 18.99944
# Shear Modulus (GPa) = 12.84825 33.63308 23.24066
#
# Velocity S-wave (km/s) = 2.32763 3.76596 3.13052
# Velocity P-wave (km/s) = 3.28445 5.60086 4.59115
#
# Compressibility (1/GPa) = 0.11832362
#
# Stress axis : x y z
#
# Youngs Moduli (GPa) = 104.39011 23.32361 35.11195
#
# Poissons Ratio (x) = -0.00735 -0.02607
# Poissons Ratio (y) = -0.03288 -0.61927
# Poissons Ratio (z) = -0.07750 -0.41136
#
# Static dielectric constant tensor:
#      x y z
#    x 2.040390 0.014710 -0.007960 
#    y 0.014710 1.983830 -0.024890 
#    z -0.007960 -0.024890 1.897650 
# 
# From -- ./inp_files/591201.got.cif
#   From: 2010.05.17/outbox.cif.g08.bks.cpg/sg2_296_cif.got.tgz:591201.got - 2010.06.03 11:33:40.
