data_PCOD9010783
_publ_section_title
;
Structure prediction by ZEFSAII (Michael W. Deem and Ramdas Pophale) SiO2 
 PCOD9010783
Probable space group: P -1
;
_chemical_formula_sum "Si O2"
_cell_formula_units_Z 16
_cell_length_a 14.576030
_cell_length_b 12.634935
_cell_length_c 9.355471
_cell_angle_alpha 146.045571
_cell_angle_beta 48.743845
_cell_angle_gamma 115.883276
_cell_volume 697.980209
_symmetry_space_group_name_H-M "P -1"
_symmetry_group_IT_number 2
_symmetry_cell_setting 'triclinic'
loop_
_space_group_symop_operation_xyz
x,y,z
-x,-y,-z
loop_
_atom_site_type_symbol
_atom_site_label
_atom_site_fract_x
_atom_site_fract_y
_atom_site_fract_z
Si Si1 0.767572 0.701885 0.449902
Si Si2 0.632260 0.394316 0.171379
Si Si3 0.575152 0.946194 0.152000
Si Si4 0.875896 0.112594 0.341113
Si Si5 0.251172 0.779320 0.680932
Si Si6 0.037235 0.092352 0.419401
Si Si7 0.528271 0.561837 0.883742
Si Si8 0.299534 0.048773 0.469922
O O1 0.737693 0.493475 0.231541
O O2 0.891596 0.738313 0.435816
O O3 0.768008 0.785534 0.383856
O O4 0.649838 0.838757 0.814718
O O5 0.500000 0.500000 0.500000
O O6 0.588699 0.435703 0.097501
O O7 0.669547 0.159738 0.881274
O O8 0.435981 0.074705 0.399494
O O9 0.659343 0.075957 0.275455
O O10 0.553411 0.774362 0.082040
O O11 0.800462 0.263752 0.469050
O O12 0.786031 0.978640 0.339017
O O13 0.927676 0.171755 0.503981
O O14 0.000000 0.000000 0.000000
O O15 0.339468 0.595272 0.466304
O O16 0.136883 0.907183 0.035307
O O17 0.000000 0.000000 0.500000
O O18 0.500000 0.500000 0.000000
#
# Coordination Sequence:
#
# PCOD9010783 Si02
#       8
#     2   2   2   2   2   2   2   2
#     4  11  21  37  66  93 128 162 201 256 321 365
#     4  11  23  37  62 100 134 155 200 253 316 390
#     4  10  22  36  60 101 126 152 205 250 315 391
#     4  10  22  42  63  88 122 170 217 258 296 360
#     4  10  22  39  69  84 126 170 195 256 324 357
#     4  10  21  40  64  92 119 163 222 257 293 361
#     4  11  23  39  58  93 135 158 196 248 311 385
#     4  11  21  36  66  91 132 160 200 257 316 368
#
# _framework density 22.923286999999998
#
# number of rings (size 3 to 8) (size 9 to 14) (size 15 to 20)
#    0.000    1.500    3.750    2.625    3.500    3.000 
#    0.000    0.625    5.500    8.250    0.000    0.000 
#    0.000    0.000    0.000    0.000    0.000    0.000 
#
# Total GULP energy -89436.657616 kJ/mol
# GULP energy per Si atom -5589.791101 kJ/mol
# Density = 2.287111 g / cm^3
# Si number density = 22.923287 Si / 1000 Ang^3
#
#
#
# Elastic Constant Matrix: (Units=GPa)
#
#
# Indices 1 2 3 4 5 6 
#
# 1 147.2476 27.7756 1.6002 -1.1300 8.5153 7.3069
# 2 27.7756 76.4328 7.7844 -15.9608 13.2257 -4.1162
# 3 1.6002 7.7844 67.1277 -14.9558 2.6144 7.8390
# 4 -1.1300 -15.9608 -14.9558 43.9746 2.7292 -4.8811
# 5 8.5153 13.2257 2.6144 2.7292 17.4041 -6.9387
# 6 7.3069 -4.1162 7.8390 -4.8811 -6.9387 30.5564
#
#
#
# Elastic Compliance Matrix: (Units=1/GPa)
#
#
# Indices 1 2 3 4 5 6 
#
# 1 0.007595 -0.002632 0.000420 -0.000778 -0.002875 -0.003056
# 2 -0.002632 0.017889 -0.000016 0.007366 -0.012949 0.001280
# 3 0.000420 -0.000016 0.016904 0.005564 -0.005520 -0.004804
# 4 -0.000778 0.007366 0.005564 0.028112 -0.009642 0.002052
# 5 -0.002875 -0.012949 -0.005520 -0.009642 0.077600 0.016440
# 6 -0.003056 0.001280 -0.004804 0.002052 0.016440 0.038923
#
#
# Mechanical properties :
#
#
# Convention : Reuss Voigt Hill
#
# Bulk Modulus (GPa) = 26.36332 40.56983 33.46658
# Shear Modulus (GPa) = 24.49474 35.29689 29.89582
#
# Velocity S-wave (km/s) = 3.27242 3.92826 3.61524
# Velocity P-wave (km/s) = 5.07976 6.18963 5.66195
#
# Compressibility (1/GPa) = 0.03793149
#
# Stress axis : x y z
#
# Youngs Moduli (GPa) = 131.66227 55.89939 59.15635
#
# Poissons Ratio (x) = 0.14715 -0.02482
# Poissons Ratio (y) = 0.34659 0.00094
# Poissons Ratio (z) = -0.05524 0.00088
#
# Static dielectric constant tensor:
#      x y z
#    x 1.898650 -0.002010 -0.014990 
#    y -0.002010 1.811340 -0.035880 
#    z -0.014990 -0.035880 1.960670 
# 
# From -- ./inp_files/308676.got.cif
#   From: 2010.05.17/outbox.cif.g08.bks.cpg/sg2_155_cif.got.tgz:308676.got - 2010.06.03 11:33:40.
