data_PCOD9010792
_publ_section_title
;
Structure prediction by ZEFSAII (Michael W. Deem and Ramdas Pophale) SiO2 
 PCOD9010792
Probable space group: P -1
;
_chemical_formula_sum "Si O2"
_cell_formula_units_Z 12
_cell_length_a 12.190179
_cell_length_b 7.168658
_cell_length_c 7.238213
_cell_angle_alpha 120.599418
_cell_angle_beta 106.922434
_cell_angle_gamma 89.449210
_cell_volume 513.445582
_symmetry_space_group_name_H-M "P -1"
_symmetry_group_IT_number 2
_symmetry_cell_setting 'triclinic'
loop_
_space_group_symop_operation_xyz
x,y,z
-x,-y,-z
loop_
_atom_site_type_symbol
_atom_site_label
_atom_site_fract_x
_atom_site_fract_y
_atom_site_fract_z
Si Si1 0.591487 0.280919 0.721544
Si Si2 0.227018 0.977163 0.475947
Si Si3 0.438735 0.954449 0.752690
Si Si4 0.764833 0.571637 0.173672
Si Si5 0.028819 0.175405 0.844463
Si Si6 0.934178 0.299706 0.246206
O O1 0.549062 0.260189 0.476463
O O2 0.699420 0.143781 0.691083
O O3 0.495448 0.150341 0.742066
O O4 0.649767 0.503946 0.960264
O O5 0.240820 0.237762 0.584004
O O6 0.300256 0.953202 0.686116
O O7 0.093262 0.871542 0.349038
O O8 0.500000 0.000000 0.000000
O O9 0.869285 0.680161 0.145659
O O10 0.807758 0.363838 0.182293
O O11 0.062434 0.938683 0.787836
O O12 0.000523 0.289525 0.078145
O O13 0.000000 0.500000 0.500000
#
# Coordination Sequence:
#
# PCOD9010792 Si02
#       6
#     2   2   2   2   2   2
#     4   9  22  42  66  93 130 172 212 279 332 374
#     4  10  21  40  64  92 127 175 210 269 328 381
#     4   9  20  45  68  91 129 167 224 281 322 388
#     4  12  23  41  67  93 137 175 205 268 338 383
#     4  11  24  41  60  99 138 168 219 260 320 403
#     4  11  23  38  61  92 131 177 218 257 313 398
#
# _framework density 23.371513
#
# number of rings (size 3 to 8) (size 9 to 14) (size 15 to 20)
#    1.000    0.667    3.333    1.000    0.000    2.000 
#    3.000    0.833    0.000    0.000    0.000    0.000 
#    0.000    0.000    0.000    0.000    0.000    0.000 
#
# Total GULP energy -66966.455847 kJ/mol
# GULP energy per Si atom -5580.537987 kJ/mol
# Density = 2.331832 g / cm^3
# Si number density = 23.371513 Si / 1000 Ang^3
#
#
#
# Elastic Constant Matrix: (Units=GPa)
#
#
# Indices 1 2 3 4 5 6 
#
# 1 61.8081 19.1813 10.9345 -4.5645 3.2335 5.6629
# 2 19.1813 69.6970 19.7770 -0.1947 -0.8674 -7.0987
# 3 10.9345 19.7770 178.8726 -9.5472 13.8015 -1.0608
# 4 -4.5645 -0.1947 -9.5472 41.3000 -7.9796 2.1595
# 5 3.2335 -0.8674 13.8015 -7.9796 49.1112 10.0198
# 6 5.6629 -7.0987 -1.0608 2.1595 10.0198 25.2238
#
#
#
# Elastic Compliance Matrix: (Units=1/GPa)
#
#
# Indices 1 2 3 4 5 6 
#
# 1 0.018729 -0.005640 -0.000467 0.002344 0.000442 -0.006188
# 2 -0.005640 0.016962 -0.001533 -0.001298 -0.000382 0.006238
# 3 -0.000467 -0.001533 0.005968 0.000984 -0.001612 0.000480
# 4 0.002344 -0.001298 0.000984 0.025873 0.004761 -0.004957
# 5 0.000442 -0.000382 -0.001612 0.004761 0.023605 -0.010059
# 6 -0.006188 0.006238 0.000480 -0.004957 -0.010059 0.047230
#
#
# Mechanical properties :
#
#
# Convention : Reuss Voigt Hill
#
# Bulk Modulus (GPa) = 37.90967 45.57371 41.74169
# Shear Modulus (GPa) = 30.78040 40.49265 35.63652
#
# Velocity S-wave (km/s) = 3.63299 4.16692 3.90909
# Velocity P-wave (km/s) = 5.81841 6.53399 6.18655
#
# Compressibility (1/GPa) = 0.02637850
#
# Stress axis : x y z
#
# Youngs Moduli (GPa) = 53.39311 58.95489 167.54897
#
# Poissons Ratio (x) = 0.33251 0.07824
# Poissons Ratio (y) = 0.30114 0.25693
# Poissons Ratio (z) = 0.02493 0.09040
#
# Static dielectric constant tensor:
#      x y z
#    x 1.902090 -0.055360 0.003930 
#    y -0.055360 1.911520 -0.006060 
#    z 0.003930 -0.006060 1.943150 
# 
# From -- ./inp_files/236289.got.cif
#   From: 2010.05.17/outbox.cif.g08.bks.cpg/sg2_119_cif.got.tgz:236289.got - 2010.06.03 11:33:40.
