data_PCOD9011247
_publ_section_title
;
Structure prediction by ZEFSAII (Michael W. Deem and Ramdas Pophale) SiO2 
 PCOD9011247
Probable space group: P -1
;
_chemical_formula_sum "Si O2"
_cell_formula_units_Z 16
_cell_length_a 9.749289
_cell_length_b 12.053144
_cell_length_c 10.633887
_cell_angle_alpha 86.814917
_cell_angle_beta 55.252560
_cell_angle_gamma 52.517303
_cell_volume 728.948485
_symmetry_space_group_name_H-M "P -1"
_symmetry_group_IT_number 2
_symmetry_cell_setting 'triclinic'
loop_
_space_group_symop_operation_xyz
x,y,z
-x,-y,-z
loop_
_atom_site_type_symbol
_atom_site_label
_atom_site_fract_x
_atom_site_fract_y
_atom_site_fract_z
Si Si1 0.737700 0.825111 0.342070
Si Si2 0.255360 0.339730 0.415406
Si Si3 0.727367 0.479326 0.237329
Si Si4 0.071611 0.015068 0.096192
Si Si5 0.235824 0.195643 0.962709
Si Si6 0.437361 0.238450 0.066729
Si Si7 0.402894 0.700209 0.593828
Si Si8 0.725603 0.450746 0.946493
O O1 0.753614 0.727595 0.450199
O O2 0.695795 0.818830 0.216847
O O3 0.019124 0.727652 0.194732
O O4 0.500000 0.000000 0.500000
O O5 0.358529 0.230835 0.245455
O O6 0.437655 0.349600 0.363758
O O7 0.000000 0.500000 0.500000
O O8 0.556935 0.639657 0.392241
O O9 0.691667 0.380120 0.335237
O O10 0.675824 0.484862 0.118718
O O11 0.001585 0.377397 0.103715
O O12 0.832701 0.117797 0.293648
O O13 0.159217 0.102506 0.026957
O O14 0.293020 0.852040 0.052120
O O15 0.000000 0.000000 0.000000
O O16 0.415381 0.158631 0.973275
O O17 0.280178 0.420354 0.110718
O O18 0.500000 0.500000 0.000000
#
# Coordination Sequence:
#
# PCOD9011247 Si02
#       8
#     2   2   2   2   2   2   2   2
#     4  11  26  44  69  99 139 182 222 288 347 407
#     4  12  23  39  67 102 131 172 232 278 335 410
#     4   9  21  40  66  90 130 174 223 280 336 403
#     4  11  23  42  69  96 138 184 221 279 350 411
#     4  10  24  45  67  99 134 180 231 279 344 408
#     4  12  24  42  70  99 137 178 229 287 339 407
#     4  10  21  40  65  95 128 176 228 274 340 406
#     4  11  25  43  67  98 138 179 232 278 348 405
#
# _framework density 21.949424
#
# number of rings (size 3 to 8) (size 9 to 14) (size 15 to 20)
#    0.000    1.250    2.500    2.625    5.250    1.000 
#    2.250    0.625    0.000    0.000    0.000    0.000 
#    0.000    0.000    0.000    0.000    0.000    0.000 
#
# Total GULP energy -89251.868814 kJ/mol
# GULP energy per Si atom -5578.241801 kJ/mol
# Density = 2.189947 g / cm^3
# Si number density = 21.949424 Si / 1000 Ang^3
#
#
#
# Elastic Constant Matrix: (Units=GPa)
#
#
# Indices 1 2 3 4 5 6 
#
# 1 123.6047 23.0155 44.7792 18.6340 8.0052 -26.0251
# 2 23.0155 77.8953 53.2468 31.2387 -10.0475 -18.2173
# 3 44.7792 53.2468 189.9592 25.0824 11.9771 -22.7441
# 4 18.6340 31.2387 25.0824 40.2394 -4.9488 -17.8904
# 5 8.0052 -10.0475 11.9771 -4.9488 15.3277 -1.0658
# 6 -26.0251 -18.2173 -22.7441 -17.8904 -1.0658 34.2922
#
#
#
# Elastic Compliance Matrix: (Units=1/GPa)
#
#
# Indices 1 2 3 4 5 6 
#
# 1 0.010438 -0.001325 -0.000854 -0.001429 -0.005715 0.005728
# 2 -0.001325 0.024936 -0.005960 -0.011534 0.018168 0.002835
# 3 -0.000854 -0.005960 0.007957 -0.000834 -0.009898 0.000720
# 4 -0.001429 -0.011534 -0.000834 0.042592 0.008612 0.014723
# 5 -0.005715 0.018168 -0.009898 0.008612 0.091073 0.006073
# 6 0.005728 0.002835 0.000720 0.014723 0.006073 0.043362
#
#
# Mechanical properties :
#
#
# Convention : Reuss Voigt Hill
#
# Bulk Modulus (GPa) = 36.96599 70.39357 53.67978
# Shear Modulus (GPa) = 20.35387 35.99972 28.17680
#
# Velocity S-wave (km/s) = 3.04848 4.05423 3.58678
# Velocity P-wave (km/s) = 5.41008 7.35229 6.45465
#
# Compressibility (1/GPa) = 0.02705190
#
# Stress axis : x y z
#
# Youngs Moduli (GPa) = 95.80257 40.10315 125.67860
#
# Poissons Ratio (x) = 0.05312 0.10738
# Poissons Ratio (y) = 0.12689 0.74909
# Poissons Ratio (z) = 0.08186 0.23903
#
# Static dielectric constant tensor:
#      x y z
#    x 1.854270 0.042380 -0.029970 
#    y 0.042380 1.857690 0.043440 
#    z -0.029970 0.043440 1.843350 
# 
# From -- ./inp_files/207653.got.cif
#   From: 2010.05.17/outbox.cif.g08.bks.cpg/sg2_104_cif.got.tgz:207653.got - 2010.06.03 11:33:40.
