data_PCOD9011248
_publ_section_title
;
Structure prediction by ZEFSAII (Michael W. Deem and Ramdas Pophale) SiO2 
 PCOD9011248
Probable space group: P -1
;
_chemical_formula_sum "Si O2"
_cell_formula_units_Z 16
_cell_length_a 12.277849
_cell_length_b 14.492021
_cell_length_c 9.151709
_cell_angle_alpha 74.266161
_cell_angle_beta 130.834816
_cell_angle_gamma 138.190896
_cell_volume 742.039745
_symmetry_space_group_name_H-M "P -1"
_symmetry_group_IT_number 2
_symmetry_cell_setting 'triclinic'
loop_
_space_group_symop_operation_xyz
x,y,z
-x,-y,-z
loop_
_atom_site_type_symbol
_atom_site_label
_atom_site_fract_x
_atom_site_fract_y
_atom_site_fract_z
Si Si1 0.832143 0.202863 0.127598
Si Si2 0.158533 0.763027 0.544783
Si Si3 0.269092 0.666055 0.169102
Si Si4 0.947819 0.928748 0.142781
Si Si5 0.736029 0.607969 0.075146
Si Si6 0.394800 0.088693 0.114927
Si Si7 0.679651 0.523508 0.726354
Si Si8 0.619756 0.941031 0.541226
O O1 0.883465 0.220805 0.335634
O O2 0.071586 0.330878 0.193496
O O3 0.702670 0.236905 0.969831
O O4 0.684028 0.039220 0.002719
O O5 0.328066 0.760172 0.709308
O O6 0.917813 0.632725 0.305319
O O7 0.312335 0.921671 0.524921
O O8 0.384282 0.621955 0.279649
O O9 0.366708 0.772134 0.351321
O O10 0.000000 0.500000 0.000000
O O11 0.848824 0.771598 0.103838
O O12 0.760213 0.899770 0.064676
O O13 0.199968 0.040435 0.382081
O O14 0.000000 0.000000 0.000000
O O15 0.500000 0.500000 0.000000
O O16 0.697015 0.556032 0.898127
O O17 0.341916 0.038339 0.260815
O O18 0.500000 0.500000 0.500000
#
# Coordination Sequence:
#
# PCOD9011248 Si02
#       8
#     2   2   2   2   2   2   2   2
#     4  11  23  43  62  98 130 168 221 267 328 387
#     4  11  23  41  67  94 132 172 213 277 321 392
#     4  10  24  39  63  94 135 167 220 271 320 394
#     4   9  21  40  66  97 125 168 223 274 320 393
#     4  11  25  47  65  98 136 170 221 273 331 396
#     4  11  22  37  70  94 127 172 222 273 328 386
#     4  11  25  43  70  90 130 180 214 262 334 389
#     4  10  21  40  65  95 129 170 221 271 328 383
#
# _framework density 21.562187000000002
#
# number of rings (size 3 to 8) (size 9 to 14) (size 15 to 20)
#    0.000    1.500    1.250    3.750    8.750    1.000 
#    0.000    2.500    0.000    0.000    0.000    0.000 
#    0.000    0.000    0.000    0.000    0.000    0.000 
#
# Total GULP energy -89292.675535 kJ/mol
# GULP energy per Si atom -5580.792221 kJ/mol
# Density = 2.151311 g / cm^3
# Si number density = 21.562187 Si / 1000 Ang^3
#
#
#
# Elastic Constant Matrix: (Units=GPa)
#
#
# Indices 1 2 3 4 5 6 
#
# 1 95.6997 6.1650 41.0417 -4.0755 15.8582 5.6181
# 2 6.1650 39.5795 -3.4241 10.2695 1.8962 -8.4092
# 3 41.0417 -3.4241 109.2918 3.5927 7.9932 -7.0031
# 4 -4.0755 10.2695 3.5927 29.0095 0.9488 8.1060
# 5 15.8582 1.8962 7.9932 0.9488 58.2355 -7.0847
# 6 5.6181 -8.4092 -7.0031 8.1060 -7.0847 36.3475
#
#
#
# Elastic Compliance Matrix: (Units=1/GPa)
#
#
# Indices 1 2 3 4 5 6 
#
# 1 0.014894 -0.006072 -0.006192 0.007175 -0.004011 -0.007282
# 2 -0.006072 0.034018 0.004676 -0.017439 0.001887 0.013967
# 3 -0.006192 0.004676 0.012129 -0.005661 0.000663 0.005768
# 4 0.007175 -0.017439 -0.005661 0.047352 -0.003507 -0.017478
# 5 -0.004011 0.001887 0.000663 -0.003507 0.018855 0.005642
# 6 -0.007282 0.013967 0.005768 -0.017478 0.005642 0.037978
#
#
# Mechanical properties :
#
#
# Convention : Reuss Voigt Hill
#
# Bulk Modulus (GPa) = 21.80370 36.90402 29.35386
# Shear Modulus (GPa) = 25.55062 38.10441 31.82751
#
# Velocity S-wave (km/s) = 3.44608 4.20835 3.84615
# Velocity P-wave (km/s) = 5.09587 6.38482 5.77641
#
# Compressibility (1/GPa) = 0.04586377
#
# Stress axis : x y z
#
# Youngs Moduli (GPa) = 67.14186 29.39643 82.44802
#
# Poissons Ratio (x) = 0.17850 0.51055
# Poissons Ratio (y) = 0.40770 -0.38555
# Poissons Ratio (z) = 0.41577 -0.13746
#
# Static dielectric constant tensor:
#      x y z
#    x 1.836040 0.002940 0.076260 
#    y 0.002940 1.784500 0.013820 
#    z 0.076260 0.013820 1.823850 
# 
# From -- ./inp_files/273012.got.cif
#   From: 2010.05.17/outbox.cif.g08.bks.cpg/sg2_137_cif.got.tgz:273012.got - 2010.06.03 11:33:40.
