data_PCOD9011187
_publ_section_title
;
Structure prediction by ZEFSAII (Michael W. Deem and Ramdas Pophale) SiO2 
 PCOD9011187
Probable space group: P -1
;
_chemical_formula_sum "Si O2"
_cell_formula_units_Z 14
_cell_length_a 12.109404
_cell_length_b 7.517200
_cell_length_c 8.292270
_cell_angle_alpha 125.511635
_cell_angle_beta 67.769175
_cell_angle_gamma 106.640496
_cell_volume 566.535488
_symmetry_space_group_name_H-M "P -1"
_symmetry_group_IT_number 2
_symmetry_cell_setting 'triclinic'
loop_
_space_group_symop_operation_xyz
x,y,z
-x,-y,-z
loop_
_atom_site_type_symbol
_atom_site_label
_atom_site_fract_x
_atom_site_fract_y
_atom_site_fract_z
Si Si1 0.685880 0.425711 0.879676
Si Si2 0.514700 0.993103 0.679027
Si Si3 0.118546 0.792167 0.183464
Si Si4 0.365652 0.391139 0.687675
Si Si5 0.142119 0.518896 0.485937
Si Si6 0.866157 0.817469 0.389951
Si Si7 0.268063 0.829804 0.825859
O O1 0.803949 0.401259 0.910718
O O2 0.752095 0.503415 0.717751
O O3 0.613413 0.185008 0.777259
O O4 0.600812 0.552305 0.114910
O O5 0.553597 0.744958 0.545135
O O6 0.383115 0.999643 0.828253
O O7 0.500000 0.000000 0.500000
O O8 0.980601 0.745384 0.196348
O O9 0.118018 0.938162 0.421937
O O10 0.184872 0.904868 0.053720
O O11 0.250071 0.216883 0.670211
O O12 0.325493 0.609773 0.741936
O O13 0.147338 0.333265 0.522243
O O14 0.186703 0.746897 0.674565
O O15 0.000000 0.500000 0.500000
#
# Coordination Sequence:
#
# PCOD9011187 Si02
#       7
#     2   2   2   2   2   2   2
#     4  11  23  42  66  95 127 172 208 258 324 373
#     4  12  24  45  64  92 136 161 217 268 305 383
#     4  10  21  40  66  97 119 175 213 255 323 369
#     4  10  24  41  67  95 123 173 213 259 320 368
#     4  11  22  39  62  94 130 163 207 261 320 374
#     4  10  21  40  65  93 135 158 216 267 303 391
#     4  10  24  42  65  93 128 170 212 259 315 377
#
# _framework density 24.711601999999999
#
# number of rings (size 3 to 8) (size 9 to 14) (size 15 to 20)
#    0.000    1.429    4.286    0.429    2.000    5.714 
#    5.143    0.714    0.000    0.000    0.000    0.000 
#    0.000    0.000    0.000    0.000    0.000    0.000 
#
# Total GULP energy -78099.731701 kJ/mol
# GULP energy per Si atom -5578.552264 kJ/mol
# Density = 2.465536 g / cm^3
# Si number density = 24.711602 Si / 1000 Ang^3
#
#
#
# Elastic Constant Matrix: (Units=GPa)
#
#
# Indices 1 2 3 4 5 6 
#
# 1 77.8106 18.1094 34.1910 -6.6064 3.9212 26.8154
# 2 18.1094 76.0533 21.7310 -14.2172 -6.0961 24.4902
# 3 34.1910 21.7310 120.6892 -13.8334 -5.6614 32.7453
# 4 -6.6064 -14.2172 -13.8334 48.1355 13.9346 -12.0238
# 5 3.9212 -6.0961 -5.6614 13.9346 24.9799 -5.3452
# 6 26.8154 24.4902 32.7453 -12.0238 -5.3452 35.3011
#
#
#
# Elastic Compliance Matrix: (Units=1/GPa)
#
#
# Indices 1 2 3 4 5 6 
#
# 1 0.018603 -0.000081 -0.001953 0.000592 -0.006505 -0.013046
# 2 -0.000081 0.017173 0.000264 0.002129 0.000664 -0.011272
# 3 -0.001953 0.000264 0.011301 0.000650 0.000674 -0.008859
# 4 0.000592 0.002129 0.000650 0.026663 -0.013329 0.004534
# 5 -0.006505 0.000664 0.000674 -0.013329 0.050286 0.006929
# 6 -0.013046 -0.011272 -0.008859 0.004534 0.006929 0.056869
#
#
# Mechanical properties :
#
#
# Convention : Reuss Voigt Hill
#
# Bulk Modulus (GPa) = 22.96862 46.95730 34.96296
# Shear Modulus (GPa) = 25.13218 35.05142 30.09180
#
# Velocity S-wave (km/s) = 3.19253 3.77028 3.49337
# Velocity P-wave (km/s) = 4.78587 6.16415 5.51821
#
# Compressibility (1/GPa) = 0.04353766
#
# Stress axis : x y z
#
# Youngs Moduli (GPa) = 53.75486 58.22955 88.48545
#
# Poissons Ratio (x) = 0.00473 0.17282
# Poissons Ratio (y) = 0.00436 -0.02338
# Poissons Ratio (z) = 0.10499 -0.01539
#
# Static dielectric constant tensor:
#      x y z
#    x 2.019080 -0.036970 -0.086470 
#    y -0.036970 2.018540 0.053250 
#    z -0.086470 0.053250 2.109420 
# 
# From -- ./inp_files/179621.got.cif
#   From: 2010.05.17/outbox.cif.g08.bks.cpg/sg2_90_cif.got.tgz:179621.got - 2010.06.03 11:33:40.
