data_PCOD9011998
_publ_section_title
;
Structure prediction by ZEFSAII (Michael W. Deem and Ramdas Pophale) SiO2 
 PCOD9011998
Probable space group: P -1
;
_chemical_formula_sum "Si O2"
_cell_formula_units_Z 16
_cell_length_a 11.203123
_cell_length_b 17.626570
_cell_length_c 21.610682
_cell_angle_alpha 20.999082
_cell_angle_beta 151.686442
_cell_angle_gamma 150.775266
_cell_volume 692.156330
_symmetry_space_group_name_H-M "P -1"
_symmetry_group_IT_number 2
_symmetry_cell_setting 'triclinic'
loop_
_space_group_symop_operation_xyz
x,y,z
-x,-y,-z
loop_
_atom_site_type_symbol
_atom_site_label
_atom_site_fract_x
_atom_site_fract_y
_atom_site_fract_z
Si Si1 0.894887 0.170664 0.137576
Si Si2 0.539617 0.590765 0.243634
Si Si3 0.825055 0.359338 0.776771
Si Si4 0.545709 0.867318 0.758816
Si Si5 0.870328 0.894298 0.585040
Si Si6 0.246376 0.310300 0.604904
Si Si7 0.930448 0.933574 0.089475
Si Si8 0.290995 0.422993 0.039718
O O1 0.908481 0.118872 0.255224
O O2 0.161262 0.358762 0.095796
O O3 0.887918 0.951807 0.262752
O O4 0.645900 0.252351 0.947491
O O5 0.338142 0.346816 0.333952
O O6 0.728898 0.609818 0.374423
O O7 0.717179 0.696986 0.184977
O O8 0.544152 0.346127 0.688330
O O9 0.879164 0.545453 0.606602
O O10 0.046986 0.416885 0.886995
O O11 0.822980 0.125593 0.924260
O O12 0.590118 0.760275 0.795748
O O13 0.295836 0.954753 0.577727
O O14 0.493037 0.663987 0.938845
O O15 0.804076 0.048984 0.763749
O O16 0.000000 0.000000 0.500000
O O17 0.000000 0.000000 0.000000
#
# Coordination Sequence:
#
# PCOD9011998 Si02
#       8
#     2   2   2   2   2   2   2   2
#     4  12  24  44  73 100 133 179 234 286 342 400
#     4  12  26  45  70 103 138 180 229 284 340 413
#     4  10  21  40  68 104 130 175 224 288 337 392
#     4  10  24  45  67  97 139 181 223 280 342 405
#     4  12  30  45  69 101 145 179 226 285 346 409
#     4  11  22  38  74 102 135 168 233 290 332 395
#     4  11  26  44  68  94 143 186 223 271 347 417
#     4  10  21  44  72 100 133 176 232 282 342 403
#
# _framework density 23.116164000000001
#
# number of rings (size 3 to 8) (size 9 to 14) (size 15 to 20)
#    0.000    1.000    2.500    3.750    8.750    1.000 
#    2.250    0.000    0.000    0.000    0.000    0.000 
#    0.000    0.000    0.000    0.000    0.000    0.000 
#
# Total GULP energy -89602.003560 kJ/mol
# GULP energy per Si atom -5600.125222 kJ/mol
# Density = 2.306355 g / cm^3
# Si number density = 23.116164 Si / 1000 Ang^3
#
#
#
# Elastic Constant Matrix: (Units=GPa)
#
#
# Indices 1 2 3 4 5 6 
#
# 1 68.7619 3.2832 27.9245 4.1335 -23.7696 16.9212
# 2 3.2832 80.9694 13.8364 -17.9169 -9.0048 5.8723
# 3 27.9245 13.8364 85.1380 3.0756 -7.6479 -2.0434
# 4 4.1335 -17.9169 3.0756 31.2942 1.9739 -9.6446
# 5 -23.7696 -9.0048 -7.6479 1.9739 31.9419 -0.2558
# 6 16.9212 5.8723 -2.0434 -9.6446 -0.2558 34.3247
#
#
#
# Elastic Compliance Matrix: (Units=1/GPa)
#
#
# Indices 1 2 3 4 5 6 
#
# 1 0.030316 0.001922 -0.008434 -0.009025 0.021494 -0.018151
# 2 0.001922 0.015159 -0.003015 0.007995 0.004476 -0.001440
# 3 -0.008434 -0.003015 0.014823 -0.000156 -0.003524 0.005486
# 4 -0.009025 0.007995 -0.000156 0.042822 -0.007025 0.015052
# 5 0.021494 0.004476 -0.003524 -0.007025 0.048048 -0.013187
# 6 -0.018151 -0.001440 0.005486 0.015052 -0.013187 0.042786
#
#
# Mechanical properties :
#
#
# Convention : Reuss Voigt Hill
#
# Bulk Modulus (GPa) = 24.24707 36.10639 30.17673
# Shear Modulus (GPa) = 22.05005 32.16716 27.10861
#
# Velocity S-wave (km/s) = 3.09185 3.73439 3.42820
# Velocity P-wave (km/s) = 4.82266 5.85215 5.36217
#
# Compressibility (1/GPa) = 0.04124209
#
# Stress axis : x y z
#
# Youngs Moduli (GPa) = 32.98602 65.96670 67.46332
#
# Poissons Ratio (x) = -0.12678 0.56902
# Poissons Ratio (y) = -0.06339 0.20342
# Poissons Ratio (z) = 0.27822 0.19891
#
# Static dielectric constant tensor:
#      x y z
#    x 1.855700 0.022440 -0.009760 
#    y 0.022440 1.861210 -0.028600 
#    z -0.009760 -0.028600 1.852640 
# 
# From -- ./inp_files/595977.got.cif
#   From: 2010.05.17/outbox.cif.g08.bks.cpg/sg2_298_cif.got.tgz:595977.got - 2010.06.03 11:33:40.
