data_PCOD9011075
_publ_section_title
;
Structure prediction by ZEFSAII (Michael W. Deem and Ramdas Pophale) SiO2 
 PCOD9011075
Probable space group: P -1
;
_chemical_formula_sum "Si O2"
_cell_formula_units_Z 14
_cell_length_a 9.736807
_cell_length_b 11.776891
_cell_length_c 6.868882
_cell_angle_alpha 123.500065
_cell_angle_beta 94.685321
_cell_angle_gamma 95.646974
_cell_volume 644.785516
_symmetry_space_group_name_H-M "P -1"
_symmetry_group_IT_number 2
_symmetry_cell_setting 'triclinic'
loop_
_space_group_symop_operation_xyz
x,y,z
-x,-y,-z
loop_
_atom_site_type_symbol
_atom_site_label
_atom_site_fract_x
_atom_site_fract_y
_atom_site_fract_z
Si Si1 0.959427 0.348557 0.260413
Si Si2 0.150337 0.237309 0.446014
Si Si3 0.496918 0.153353 0.858315
Si Si4 0.724070 0.001103 0.596457
Si Si5 0.244325 0.701426 0.126030
Si Si6 0.179136 0.407846 0.006419
Si Si7 0.398688 0.359551 0.295894
O O1 0.007951 0.243449 0.318624
O O2 0.054386 0.349655 0.081062
O O3 0.000000 0.500000 0.500000
O O4 0.805660 0.322577 0.127505
O O5 0.177107 0.086624 0.365973
O O6 0.278887 0.310060 0.394108
O O7 0.158029 0.329184 0.726944
O O8 0.354250 0.085398 0.672906
O O9 0.587012 0.267817 0.833646
O O10 0.599964 0.039555 0.758744
O O11 0.473997 0.230741 0.126834
O O12 0.796827 0.152936 0.679001
O O13 0.185270 0.569988 0.120901
O O14 0.319268 0.388716 0.115953
O O15 0.500000 0.500000 0.500000
#
# Coordination Sequence:
#
# PCOD9011075 Si02
#       7
#     2   2   2   2   2   2   2
#     4  11  24  41  65  96 122 161 222 260 307 367
#     4  11  23  41  64  90 131 165 205 263 312 368
#     4   9  20  40  62  94 127 162 211 249 316 380
#     4   9  21  40  65  90 128 171 203 252 321 378
#     4  10  21  40  65  90 124 169 209 254 312 374
#     4  11  23  40  66  89 128 167 204 267 311 363
#     4  11  24  35  65 101 123 163 216 258 313 373
#
# _framework density 21.712647
#
# number of rings (size 3 to 8) (size 9 to 14) (size 15 to 20)
#    0.857    0.857    2.857    1.286    4.000    2.286 
#    0.000    2.143    0.000    0.000    0.000    0.000 
#    0.000    0.000    0.000    0.000    0.000    0.000 
#
# Total GULP energy -78131.319612 kJ/mol
# GULP energy per Si atom -5580.808544 kJ/mol
# Density = 2.166323 g / cm^3
# Si number density = 21.712647 Si / 1000 Ang^3
#
#
#
# Elastic Constant Matrix: (Units=GPa)
#
#
# Indices 1 2 3 4 5 6 
#
# 1 29.8646 16.7441 15.2180 3.5670 4.0435 -10.4430
# 2 16.7441 92.9409 31.9273 2.0467 0.6467 -25.1526
# 3 15.2180 31.9273 116.6683 11.4375 -5.9107 3.3407
# 4 3.5670 2.0467 11.4375 29.1122 1.3387 -0.2893
# 5 4.0435 0.6467 -5.9107 1.3387 30.0394 4.7213
# 6 -10.4430 -25.1526 3.3407 -0.2893 4.7213 29.3300
#
#
#
# Elastic Compliance Matrix: (Units=1/GPa)
#
#
# Indices 1 2 3 4 5 6 
#
# 1 0.045035 -0.001112 -0.006342 -0.002320 -0.009914 0.017377
# 2 -0.001112 0.016895 -0.005234 0.001328 -0.003708 0.015299
# 3 -0.006342 -0.005234 0.011699 -0.003762 0.004834 -0.008895
# 4 -0.002320 0.001328 -0.003762 0.036139 -0.002298 0.001467
# 5 -0.009914 -0.003708 0.004834 -0.002298 0.037860 -0.013377
# 6 0.017377 0.015299 -0.008895 0.001467 -0.013377 0.056583
#
#
# Mechanical properties :
#
#
# Convention : Reuss Voigt Hill
#
# Bulk Modulus (GPa) = 20.72453 40.80584 30.76519
# Shear Modulus (GPa) = 20.35224 29.40195 24.87709
#
# Velocity S-wave (km/s) = 3.06493 3.68386 3.38855
# Velocity P-wave (km/s) = 4.70007 6.07690 5.43229
#
# Compressibility (1/GPa) = 0.04825200
#
# Stress axis : x y z
#
# Youngs Moduli (GPa) = 22.20473 59.18951 85.47395
#
# Poissons Ratio (x) = 0.06582 0.54211
# Poissons Ratio (y) = 0.02469 0.44741
# Poissons Ratio (z) = 0.14083 0.30982
#
# Static dielectric constant tensor:
#      x y z
#    x 1.855230 -0.036590 -0.001590 
#    y -0.036590 1.788500 0.009360 
#    z -0.001590 0.009360 1.783450 
# 
# From -- ./inp_files/72308.got.cif
#   From: 2010.05.17/outbox.cif.g08.bks.cpg/sg2_37_cif.got.tgz:72308.got - 2010.06.03 11:33:40.
