data_PCOD9011312
_publ_section_title
;
Structure prediction by ZEFSAII (Michael W. Deem and Ramdas Pophale) SiO2 
 PCOD9011312
Probable space group: P -1
;
_chemical_formula_sum "Si O2"
_cell_formula_units_Z 16
_cell_length_a 23.530131
_cell_length_b 19.842605
_cell_length_c 5.152925
_cell_angle_alpha 101.749192
_cell_angle_beta 103.213748
_cell_angle_gamma 16.445354
_cell_volume 662.014140
_symmetry_space_group_name_H-M "P -1"
_symmetry_group_IT_number 2
_symmetry_cell_setting 'triclinic'
loop_
_space_group_symop_operation_xyz
x,y,z
-x,-y,-z
loop_
_atom_site_type_symbol
_atom_site_label
_atom_site_fract_x
_atom_site_fract_y
_atom_site_fract_z
Si Si1 0.376593 0.251281 0.628338
Si Si2 0.653026 0.005221 0.363314
Si Si3 0.954130 0.976554 0.051693
Si Si4 0.314673 0.167381 0.061575
Si Si5 0.895549 0.338453 0.102016
Si Si6 0.291863 0.774216 0.506765
Si Si7 0.030027 0.543443 0.673586
Si Si8 0.168412 0.058911 0.679556
O O1 0.194326 0.401942 0.568606
O O2 0.435969 0.229569 0.426601
O O3 0.307620 0.387167 0.868308
O O4 0.579908 0.977122 0.677241
O O5 0.711144 0.876254 0.140748
O O6 0.694117 0.030177 0.287670
O O7 0.817524 0.820216 0.626026
O O8 0.864721 0.080755 0.331222
O O9 0.788845 0.135590 0.799900
O O10 0.118632 0.728268 0.012522
O O11 0.000000 0.000000 0.000000
O O12 0.122529 0.428787 0.969065
O O13 0.500000 0.000000 0.000000
O O14 0.031181 0.214814 0.913920
O O15 0.015425 0.218293 0.402612
O O16 0.500000 0.500000 0.500000
O O17 0.309638 0.832545 0.661537
O O18 0.000000 0.500000 0.500000
#
# Coordination Sequence:
#
# PCOD9011312 Si02
#       8
#     2   2   2   2   2   2   2   2
#     4  11  23  39  63  96 127 168 226 269 325 394
#     4  11  23  39  65  94 125 174 223 267 331 398
#     4  10  21  40  65  97 132 176 219 262 328 383
#     4   9  22  39  58  92 126 161 213 277 324 393
#     4  10  23  43  66  92 136 180 213 271 329 390
#     4  10  21  40  65  97 133 174 217 271 318 383
#     4   9  20  41  62  88 132 168 207 278 338 388
#     4  10  23  43  66  93 134 180 218 261 338 390
#
# _framework density 24.168669000000001
#
# number of rings (size 3 to 8) (size 9 to 14) (size 15 to 20)
#    0.000    2.000    1.250    0.750    3.500    6.000 
#    2.250    7.500    0.000    0.000    0.000    0.000 
#    0.000    0.000    0.000    0.000    0.000    0.000 
#
# Total GULP energy -89329.764551 kJ/mol
# GULP energy per Si atom -5583.110284 kJ/mol
# Density = 2.411366 g / cm^3
# Si number density = 24.168669 Si / 1000 Ang^3
#
#
#
# Elastic Constant Matrix: (Units=GPa)
#
#
# Indices 1 2 3 4 5 6 
#
# 1 203.9229 36.6484 12.4530 18.9156 -11.0951 -0.5578
# 2 36.6484 91.7741 22.0522 13.9028 -0.1267 14.7779
# 3 12.4530 22.0522 98.4882 3.6201 -13.1577 -0.5138
# 4 18.9156 13.9028 3.6201 31.4441 -1.3544 0.5623
# 5 -11.0951 -0.1267 -13.1577 -1.3544 33.9775 6.8583
# 6 -0.5578 14.7779 -0.5138 0.5623 6.8583 39.3406
#
#
#
# Elastic Compliance Matrix: (Units=1/GPa)
#
#
# Indices 1 2 3 4 5 6 
#
# 1 0.005567 -0.001954 0.000042 -0.002430 0.001616 0.000567
# 2 -0.001954 0.013863 -0.002828 -0.004574 -0.000842 -0.005060
# 3 0.000042 -0.002828 0.011356 0.000095 0.004312 0.000458
# 4 -0.002430 -0.004574 0.000095 0.035274 0.000408 0.001110
# 5 0.001616 -0.000842 0.004312 0.000408 0.032714 -0.005313
# 6 0.000567 -0.005060 0.000458 0.001110 -0.005313 0.028244
#
#
# Mechanical properties :
#
#
# Convention : Reuss Voigt Hill
#
# Bulk Modulus (GPa) = 46.93465 59.61027 53.27246
# Shear Modulus (GPa) = 34.81883 42.48788 38.65336
#
# Velocity S-wave (km/s) = 3.79972 4.19737 4.00348
# Velocity P-wave (km/s) = 6.22192 6.94322 6.59244
#
# Compressibility (1/GPa) = 0.02130622
#
# Stress axis : x y z
#
# Youngs Moduli (GPa) = 179.61890 72.13657 88.05652
#
# Poissons Ratio (x) = 0.14096 -0.00367
# Poissons Ratio (y) = 0.35099 0.24900
# Poissons Ratio (z) = -0.00749 0.20398
#
# Static dielectric constant tensor:
#      x y z
#    x 1.963270 0.012610 -0.048960 
#    y 0.012610 2.032290 -0.014300 
#    z -0.048960 -0.014300 2.046570 
# 
# From -- ./inp_files/120092.got.cif
#   From: 2010.05.17/outbox.cif.g08.bks.cpg/sg2_61_cif.got.tgz:120092.got - 2010.06.03 11:33:40.
