data_PCOD9011784
_publ_section_title
;
Structure prediction by ZEFSAII (Michael W. Deem and Ramdas Pophale) SiO2 
 PCOD9011784
Probable space group: P -1
;
_chemical_formula_sum "Si O2"
_cell_formula_units_Z 16
_cell_length_a 9.670412
_cell_length_b 11.605526
_cell_length_c 9.125790
_cell_angle_alpha 70.585859
_cell_angle_beta 99.741680
_cell_angle_gamma 139.031890
_cell_volume 627.754912
_symmetry_space_group_name_H-M "P -1"
_symmetry_group_IT_number 2
_symmetry_cell_setting 'triclinic'
loop_
_space_group_symop_operation_xyz
x,y,z
-x,-y,-z
loop_
_atom_site_type_symbol
_atom_site_label
_atom_site_fract_x
_atom_site_fract_y
_atom_site_fract_z
Si Si1 0.196635 0.773001 0.322495
Si Si2 0.120300 0.950464 0.421407
Si Si3 0.834185 0.775866 0.873038
Si Si4 0.693886 0.326471 0.120609
Si Si5 0.694693 0.390678 0.420469
Si Si6 0.326552 0.252910 0.556984
Si Si7 0.862795 0.230481 0.015920
Si Si8 0.538680 0.639481 0.133525
O O1 0.309539 0.723793 0.417232
O O2 0.242449 0.834171 0.135920
O O3 0.941425 0.585113 0.366007
O O4 0.221852 0.898369 0.389786
O O5 0.139219 0.075048 0.257145
O O6 0.228396 0.068147 0.539342
O O7 0.866823 0.777552 0.480609
O O8 0.658680 0.582964 0.832823
O O9 0.737505 0.718839 0.043127
O O10 0.053616 0.847099 0.893313
O O11 0.624006 0.301109 0.284929
O O12 0.918800 0.546234 0.054200
O O13 0.732401 0.213519 0.125689
O O14 0.537115 0.289066 0.995443
O O15 0.546948 0.404475 0.441980
O O16 0.396677 0.290673 0.720458
#
# Coordination Sequence:
#
# PCOD9011784 Si02
#       8
#     2   2   2   2   2   2   2   2
#     4  10  22  41  66  94 124 163 209 258 312 369
#     4  11  26  42  59  91 131 166 204 257 316 368
#     4  10  22  41  64  91 124 160 204 260 311 363
#     4   9  18  35  62  93 117 148 204 262 301 349
#     4  10  22  42  67  92 123 165 211 257 306 371
#     4  11  25  41  62  90 127 168 209 252 309 372
#     4   9  18  35  61  91 120 152 198 253 308 362
#     4  10  21  40  67  93 118 160 213 255 303 371
#
# _framework density 25.487655
#
# number of rings (size 3 to 8) (size 9 to 14) (size 15 to 20)
#    0.000    2.000    0.000    2.250    0.000   13.500 
#    0.000    1.250    0.000    4.500    0.000    0.000 
#    0.000    0.000    0.000    0.000    0.000    0.000 
#
# Total GULP energy -89674.778848 kJ/mol
# GULP energy per Si atom -5604.673678 kJ/mol
# Density = 2.542964 g / cm^3
# Si number density = 25.487655 Si / 1000 Ang^3
#
#
#
# Elastic Constant Matrix: (Units=GPa)
#
#
# Indices 1 2 3 4 5 6 
#
# 1 55.3594 32.6207 15.4955 7.4597 1.5390 -0.1748
# 2 32.6207 78.6395 35.4279 14.2333 -6.9238 3.5144
# 3 15.4955 35.4279 147.3600 34.7092 -14.3313 -6.4636
# 4 7.4597 14.2333 34.7092 47.7750 -8.1769 -1.3776
# 5 1.5390 -6.9238 -14.3313 -8.1769 40.1104 2.8644
# 6 -0.1748 3.5144 -6.4636 -1.3776 2.8644 33.9825
#
#
#
# Elastic Compliance Matrix: (Units=1/GPa)
#
#
# Indices 1 2 3 4 5 6 
#
# 1 0.024329 -0.010175 -0.000066 -0.001203 -0.003057 0.001374
# 2 -0.010175 0.018910 -0.003002 -0.001523 0.002475 -0.002849
# 3 -0.000066 -0.003002 0.008987 -0.005321 0.001491 0.001678
# 4 -0.001203 -0.001523 -0.005321 0.025981 0.003184 -0.000076
# 5 -0.003057 0.002475 0.001491 0.003184 0.026809 -0.002119
# 6 0.001374 -0.002849 0.001678 -0.000076 -0.002119 0.030223
#
#
# Mechanical properties :
#
#
# Convention : Reuss Voigt Hill
#
# Bulk Modulus (GPa) = 38.84945 49.82746 44.33846
# Shear Modulus (GPa) = 29.35888 37.56122 33.46005
#
# Velocity S-wave (km/s) = 3.39763 3.84305 3.62718
# Velocity P-wave (km/s) = 5.53781 6.26770 5.91403
#
# Compressibility (1/GPa) = 0.02574039
#
# Stress axis : x y z
#
# Youngs Moduli (GPa) = 41.10239 52.88084 111.27719
#
# Poissons Ratio (x) = 0.53808 0.00730
# Poissons Ratio (y) = 0.41823 0.33406
# Poissons Ratio (z) = 0.00270 0.15875
#
# Static dielectric constant tensor:
#      x y z
#    x 1.972320 0.027790 -0.026240 
#    y 0.027790 2.081450 -0.050620 
#    z -0.026240 -0.050620 1.947100 
# 
# From -- ./inp_files/186818.got.cif
#   From: 2010.05.17/outbox.cif.g08.bks.cpg/sg2_94_cif.got.tgz:186818.got - 2010.06.03 11:33:40.
