data_PCOD9011216
_publ_section_title
;
Structure prediction by ZEFSAII (Michael W. Deem and Ramdas Pophale) SiO2 
 PCOD9011216
Probable space group: P -1
;
_chemical_formula_sum "Si O2"
_cell_formula_units_Z 16
_cell_length_a 15.058225
_cell_length_b 11.683914
_cell_length_c 19.613849
_cell_angle_alpha 44.614573
_cell_angle_beta 28.583435
_cell_angle_gamma 26.383333
_cell_volume 686.749356
_symmetry_space_group_name_H-M "P -1"
_symmetry_group_IT_number 2
_symmetry_cell_setting 'triclinic'
loop_
_space_group_symop_operation_xyz
x,y,z
-x,-y,-z
loop_
_atom_site_type_symbol
_atom_site_label
_atom_site_fract_x
_atom_site_fract_y
_atom_site_fract_z
Si Si1 0.824542 0.745410 0.349156
Si Si2 0.041517 0.399894 0.906448
Si Si3 0.948432 0.848714 0.105396
Si Si4 0.255297 0.407879 0.321228
Si Si5 0.078229 0.216839 0.097467
Si Si6 0.827058 0.199027 0.715418
Si Si7 0.334733 0.686418 0.385938
Si Si8 0.571067 0.694042 0.425705
O O1 0.973660 0.794553 0.190816
O O2 0.736119 0.686018 0.375072
O O3 0.100545 0.494501 0.316477
O O4 0.500000 0.000000 0.500000
O O5 0.889588 0.385978 0.958384
O O6 0.824839 0.691822 0.963196
O O7 0.283943 0.343632 0.725914
O O8 0.179407 0.187120 0.963873
O O9 0.579678 0.086630 0.239801
O O10 0.000000 0.000000 0.000000
O O11 0.296297 0.565113 0.253333
O O12 0.000000 0.500000 0.500000
O O13 0.695858 0.493551 0.230384
O O14 0.181153 0.974140 0.167451
O O15 0.699794 0.309726 0.676030
O O16 0.199243 0.971829 0.556304
O O17 0.353349 0.535311 0.497054
O O18 0.000000 0.000000 0.500000
#
# Coordination Sequence:
#
# PCOD9011216 Si02
#       8
#     2   2   2   2   2   2   2   2
#     4  11  21  40  64  93 127 174 219 263 329 388
#     4  10  22  46  65  90 132 177 217 263 342 385
#     4  11  27  42  68  98 138 170 218 283 330 395
#     4  12  23  40  69  99 131 176 224 267 333 402
#     4  10  24  44  67  88 133 178 215 277 322 397
#     4  11  23  39  67  99 128 169 225 272 332 392
#     4  11  23  38  65  96 124 165 222 273 331 383
#     4  10  21  40  65  94 133 166 213 283 318 389
#
# _framework density 23.298166999999999
#
# number of rings (size 3 to 8) (size 9 to 14) (size 15 to 20)
#    0.000    1.250    2.500    3.000    3.500    3.500 
#    0.000    6.875    0.000    0.000    0.000    0.000 
#    0.000    0.000    0.000    0.000    0.000    0.000 
#
# Total GULP energy -89168.358337 kJ/mol
# GULP energy per Si atom -5573.022396 kJ/mol
# Density = 2.324514 g / cm^3
# Si number density = 23.298167 Si / 1000 Ang^3
#
#
#
# Elastic Constant Matrix: (Units=GPa)
#
#
# Indices 1 2 3 4 5 6 
#
# 1 102.5444 28.9958 19.3512 -0.1739 8.7049 -11.6301
# 2 28.9958 87.3210 30.3306 -6.7915 -4.7550 -7.7597
# 3 19.3512 30.3306 94.5793 -35.3126 23.6777 -5.8447
# 4 -0.1739 -6.7915 -35.3126 48.8513 -4.3672 -4.0990
# 5 8.7049 -4.7550 23.6777 -4.3672 35.2698 -4.0116
# 6 -11.6301 -7.7597 -5.8447 -4.0990 -4.0116 42.3232
#
#
#
# Elastic Compliance Matrix: (Units=1/GPa)
#
#
# Indices 1 2 3 4 5 6 
#
# 1 0.011356 -0.003539 -0.000819 -0.001112 -0.002640 0.002001
# 2 -0.003539 0.015313 -0.006647 -0.001914 0.007325 0.001426
# 3 -0.000819 -0.006647 0.021255 0.013393 -0.013129 0.001544
# 4 -0.001112 -0.001914 0.013393 0.029748 -0.004881 0.003612
# 5 -0.002640 0.007325 -0.013129 -0.004881 0.038426 0.001974
# 6 0.002001 0.001426 0.001544 0.003612 0.001974 0.025189
#
#
# Mechanical properties :
#
#
# Convention : Reuss Voigt Hill
#
# Bulk Modulus (GPa) = 38.58888 49.08888 43.83888
# Shear Modulus (GPa) = 29.08056 39.00666 34.04361
#
# Velocity S-wave (km/s) = 3.53681 4.09618 3.82673
# Velocity P-wave (km/s) = 5.76868 6.59448 6.19536
#
# Compressibility (1/GPa) = 0.02591420
#
# Stress axis : x y z
#
# Youngs Moduli (GPa) = 88.05709 65.30548 47.04714
#
# Poissons Ratio (x) = 0.23111 0.03854
# Poissons Ratio (y) = 0.31162 0.31272
# Poissons Ratio (z) = 0.07214 0.43408
#
# Static dielectric constant tensor:
#      x y z
#    x 1.617690 0.281550 -0.391410 
#    y 0.281550 1.698430 0.291310 
#    z -0.391410 0.291310 1.421100 
# 
# From -- ./inp_files/573585.got.cif
#   From: 2010.05.17/outbox.cif.g08.bks.cpg/sg2_287_cif.got.tgz:573585.got - 2010.06.03 11:33:40.
