data_PCOD9011630
_publ_section_title
;
Structure prediction by ZEFSAII (Michael W. Deem and Ramdas Pophale) SiO2 
 PCOD9011630
Probable space group: P -1
;
_chemical_formula_sum "Si O2"
_cell_formula_units_Z 16
_cell_length_a 11.243565
_cell_length_b 11.813235
_cell_length_c 5.310152
_cell_angle_alpha 100.071861
_cell_angle_beta 65.329463
_cell_angle_gamma 89.494048
_cell_volume 628.409173
_symmetry_space_group_name_H-M "P -1"
_symmetry_group_IT_number 2
_symmetry_cell_setting 'triclinic'
loop_
_space_group_symop_operation_xyz
x,y,z
-x,-y,-z
loop_
_atom_site_type_symbol
_atom_site_label
_atom_site_fract_x
_atom_site_fract_y
_atom_site_fract_z
Si Si1 0.978642 0.657664 0.828989
Si Si2 0.956428 0.897092 0.166409
Si Si3 0.799683 0.255426 0.007124
Si Si4 0.846734 0.458600 0.768673
Si Si5 0.547068 0.854585 0.168855
Si Si6 0.455046 0.686710 0.537352
Si Si7 0.605719 0.540211 0.722340
Si Si8 0.328399 0.050259 0.391629
O O1 0.893339 0.555922 0.954382
O O2 0.116506 0.667155 0.852525
O O3 0.024145 0.612859 0.494549
O O4 0.918251 0.787861 0.984894
O O5 0.827844 0.940723 0.449335
O O6 0.086795 0.846506 0.186090
O O7 0.000000 0.000000 0.000000
O O8 0.665762 0.222196 0.235530
O O9 0.764656 0.349336 0.860417
O O10 0.748605 0.538898 0.712716
O O11 0.520771 0.728955 0.244052
O O12 0.613391 0.903431 0.380614
O O13 0.405109 0.923075 0.259258
O O14 0.631575 0.879907 0.861456
O O15 0.559321 0.653735 0.649755
O O16 0.388984 0.567988 0.515952
O O17 0.500000 0.500000 0.000000
#
# Coordination Sequence:
#
# PCOD9011630 Si02
#       8
#     2   2   2   2   2   2   2   2
#     4   9  23  40  65  99 140 184 228 293 365 431
#     4  10  22  44  70 105 140 186 236 303 367 439
#     4  10  21  40  66  97 138 182 230 295 357 428
#     4  11  20  42  65  98 142 187 239 288 364 440
#     4  10  24  45  72 100 142 195 231 306 362 440
#     4  11  23  42  62  99 141 183 234 294 368 426
#     4  11  23  38  62  98 135 179 240 294 353 434
#     4  10  23  47  70 105 143 182 250 294 366 438
#
# _framework density 25.461114999999999
#
# number of rings (size 3 to 8) (size 9 to 14) (size 15 to 20)
#    0.750    1.000    2.500    1.125    1.750    2.000 
#    4.500    3.750    0.000    0.000    0.000    0.000 
#    0.000    0.000    0.000    0.000    0.000    0.000 
#
# Total GULP energy -89285.918956 kJ/mol
# GULP energy per Si atom -5580.369935 kJ/mol
# Density = 2.540316 g / cm^3
# Si number density = 25.461115 Si / 1000 Ang^3
#
#
#
# Elastic Constant Matrix: (Units=GPa)
#
#
# Indices 1 2 3 4 5 6 
#
# 1 120.2685 43.5020 47.6089 -3.7697 -11.3256 -38.5801
# 2 43.5020 123.9214 56.4203 -24.0169 -6.3081 -7.2135
# 3 47.6089 56.4203 136.7680 -24.0956 -28.1212 -21.7991
# 4 -3.7697 -24.0169 -24.0956 42.7647 -2.1074 10.7385
# 5 -11.3256 -6.3081 -28.1212 -2.1074 42.6047 13.7729
# 6 -38.5801 -7.2135 -21.7991 10.7385 13.7729 33.0501
#
#
#
# Elastic Compliance Matrix: (Units=1/GPa)
#
#
# Indices 1 2 3 4 5 6 
#
# 1 0.018521 -0.005858 -0.003233 -0.009828 -0.006336 0.024043
# 2 -0.005858 0.012400 -0.002925 0.007157 0.001633 -0.009066
# 3 -0.003233 -0.002925 0.011882 0.005472 0.007267 -0.001382
# 4 -0.009828 0.007157 0.005472 0.035840 0.011133 -0.022586
# 5 -0.006336 0.001633 0.007267 0.011133 0.033830 -0.019962
# 6 0.024043 -0.009066 -0.001382 -0.022586 -0.019962 0.071090
#
#
# Mechanical properties :
#
#
# Convention : Reuss Voigt Hill
#
# Bulk Modulus (GPa) = 53.26995 75.11338 64.19166
# Shear Modulus (GPa) = 23.38082 39.24570 31.31326
#
# Velocity S-wave (km/s) = 3.03363 3.93032 3.51072
# Velocity P-wave (km/s) = 5.76524 7.08250 6.45755
#
# Compressibility (1/GPa) = 0.01877231
#
# Stress axis : x y z
#
# Youngs Moduli (GPa) = 53.99226 80.64586 84.16338
#
# Poissons Ratio (x) = 0.47239 0.27210
# Poissons Ratio (y) = 0.31627 0.24614
# Poissons Ratio (z) = 0.17456 0.23586
#
# Static dielectric constant tensor:
#      x y z
#    x 2.004440 0.012160 0.066290 
#    y 0.012160 2.119740 -0.011920 
#    z 0.066290 -0.011920 2.255130 
# 
# From -- ./inp_files/73140.got.cif
#   From: 2010.05.17/outbox.cif.g08.bks.cpg/sg2_37_cif.got.tgz:73140.got - 2010.06.03 11:33:40.
