data_PCOD9011707
_publ_section_title
;
Structure prediction by ZEFSAII (Michael W. Deem and Ramdas Pophale) SiO2 
 PCOD9011707
Probable space group: P -1
;
_chemical_formula_sum "Si O2"
_cell_formula_units_Z 16
_cell_length_a 14.911429
_cell_length_b 10.075149
_cell_length_c 8.425217
_cell_angle_alpha 68.928927
_cell_angle_beta 144.616637
_cell_angle_gamma 111.397555
_cell_volume 677.873588
_symmetry_space_group_name_H-M "P -1"
_symmetry_group_IT_number 2
_symmetry_cell_setting 'triclinic'
loop_
_space_group_symop_operation_xyz
x,y,z
-x,-y,-z
loop_
_atom_site_type_symbol
_atom_site_label
_atom_site_fract_x
_atom_site_fract_y
_atom_site_fract_z
Si Si1 0.788247 0.974933 0.845062
Si Si2 0.775229 0.300611 0.762142
Si Si3 0.777017 0.577219 0.178757
Si Si4 0.967205 0.383819 0.715370
Si Si5 0.131659 0.915770 0.432288
Si Si6 0.611474 0.387559 0.778434
Si Si7 0.442034 0.209947 0.204482
Si Si8 0.404754 0.942572 0.039892
O O1 0.772888 0.128595 0.838001
O O2 0.804559 0.992573 0.670700
O O3 0.644342 0.857960 0.733265
O O4 0.950385 0.936176 0.167234
O O5 0.924867 0.361494 0.847778
O O6 0.755055 0.380588 0.863612
O O7 0.608039 0.304212 0.431563
O O8 0.904812 0.525625 0.500134
O O9 0.866534 0.626813 0.121325
O O10 0.658071 0.446670 0.994494
O O11 0.681800 0.689472 0.077064
O O12 0.861446 0.247304 0.541381
O O13 0.225798 0.939858 0.720797
O O14 0.500000 0.500000 0.500000
O O15 0.560719 0.216681 0.798268
O O16 0.451052 0.068588 0.177413
O O17 0.500000 0.000000 0.000000
#
# Coordination Sequence:
#
# PCOD9011707 Si02
#       8
#     2   2   2   2   2   2   2   2
#     4  10  21  40  67 102 130 177 220 276 345 403
#     4  11  24  42  67  97 135 179 226 283 337 408
#     4  11  24  44  70  97 133 179 225 281 344 408
#     4  10  22  44  67  95 134 178 223 277 348 407
#     4  10  21  41  70  97 139 172 223 283 336 407
#     4  12  26  45  69 101 140 179 230 284 340 404
#     4  12  24  42  71 100 135 179 228 277 343 408
#     4  12  27  45  68 105 140 180 231 286 337 406
#
# _framework density 23.603221000000001
#
# number of rings (size 3 to 8) (size 9 to 14) (size 15 to 20)
#    0.000    1.000    5.000    1.875    1.750    2.500 
#    4.500    0.000    0.000    0.000    0.000    0.000 
#    0.000    0.000    0.000    0.000    0.000    0.000 
#
# Total GULP energy -89327.957379 kJ/mol
# GULP energy per Si atom -5582.997336 kJ/mol
# Density = 2.354950 g / cm^3
# Si number density = 23.603221 Si / 1000 Ang^3
#
#
#
# Elastic Constant Matrix: (Units=GPa)
#
#
# Indices 1 2 3 4 5 6 
#
# 1 56.6984 8.3484 -8.3375 -14.3879 9.7175 1.5079
# 2 8.3484 72.9067 15.8800 -15.8351 0.3697 -16.5446
# 3 -8.3375 15.8800 90.5061 -17.2120 8.3830 -12.4751
# 4 -14.3879 -15.8351 -17.2120 42.0660 -12.1154 6.7695
# 5 9.7175 0.3697 8.3830 -12.1154 27.4752 -1.9884
# 6 1.5079 -16.5446 -12.4751 6.7695 -1.9884 29.3006
#
#
#
# Elastic Compliance Matrix: (Units=1/GPa)
#
#
# Indices 1 2 3 4 5 6 
#
# 1 0.021348 -0.002428 0.003831 0.006694 -0.005937 -0.002788
# 2 -0.002428 0.017247 -0.001541 0.004784 0.003811 0.008361
# 3 0.003831 -0.001541 0.013316 0.004769 -0.003056 0.003293
# 4 0.006694 0.004784 0.004769 0.033283 0.010602 -0.002583
# 5 -0.005937 0.003811 -0.003056 0.010602 0.044176 0.001705
# 6 -0.002788 0.008361 0.003293 -0.002583 0.001705 0.041108
#
#
# Mechanical properties :
#
#
# Convention : Reuss Voigt Hill
#
# Bulk Modulus (GPa) = 19.36569 27.98811 23.67690
# Shear Modulus (GPa) = 26.60077 33.38305 29.99191
#
# Velocity S-wave (km/s) = 3.36072 3.76486 3.56851
# Velocity P-wave (km/s) = 4.82512 5.54818 5.19923
#
# Compressibility (1/GPa) = 0.05163772
#
# Stress axis : x y z
#
# Youngs Moduli (GPa) = 46.84181 57.98217 75.09679
#
# Poissons Ratio (x) = 0.14076 -0.28772
# Poissons Ratio (y) = 0.11371 0.11569
# Poissons Ratio (z) = -0.17947 0.08932
#
# Static dielectric constant tensor:
#      x y z
#    x 1.919870 0.045510 -0.002290 
#    y 0.045510 1.953420 0.047710 
#    z -0.002290 0.047710 1.977800 
# 
# From -- ./inp_files/298064.got.cif
#   From: 2010.05.17/outbox.cif.g08.bks.cpg/sg2_150_cif.got.tgz:298064.got - 2010.06.03 11:33:40.
