data_PCOD9011617
_publ_section_title
;
Structure prediction by ZEFSAII (Michael W. Deem and Ramdas Pophale) SiO2 
 PCOD9011617
Probable space group: P -1
;
_chemical_formula_sum "Si O2"
_cell_formula_units_Z 16
_cell_length_a 11.660554
_cell_length_b 19.990613
_cell_length_c 8.748363
_cell_angle_alpha 37.428223
_cell_angle_beta 75.361577
_cell_angle_gamma 45.297266
_cell_volume 622.027288
_symmetry_space_group_name_H-M "P -1"
_symmetry_group_IT_number 2
_symmetry_cell_setting 'triclinic'
loop_
_space_group_symop_operation_xyz
x,y,z
-x,-y,-z
loop_
_atom_site_type_symbol
_atom_site_label
_atom_site_fract_x
_atom_site_fract_y
_atom_site_fract_z
Si Si1 0.816411 0.494974 0.578950
Si Si2 0.201859 0.112950 0.496565
Si Si3 0.828809 0.287833 0.466879
Si Si4 0.383563 0.578780 0.231777
Si Si5 0.940440 0.973068 0.830674
Si Si6 0.367522 0.109800 0.686524
Si Si7 0.295817 0.984397 0.378651
Si Si8 0.956335 0.533997 0.207840
O O1 0.645663 0.528535 0.600148
O O2 0.853027 0.559503 0.576546
O O3 0.805399 0.567235 0.291600
O O4 0.066833 0.237287 0.961101
O O5 0.363161 0.998344 0.797346
O O6 0.277781 0.974615 0.583438
O O7 0.949044 0.283377 0.330851
O O8 0.189913 0.246234 0.194686
O O9 0.558566 0.499321 0.203632
O O10 0.954961 0.182554 0.781735
O O11 0.889625 0.128236 0.645215
O O12 0.500000 0.500000 0.500000
O O13 0.132379 0.825533 0.900181
O O14 0.723409 0.093974 0.599867
O O15 0.105809 0.350007 0.369946
O O16 0.489933 0.109256 0.553905
O O17 0.500000 0.000000 0.000000
#
# Coordination Sequence:
#
# PCOD9011617 Si02
#       8
#     2   2   2   2   2   2   2   2
#     4   9  19  40  64  92 126 169 217 262 320 395
#     4  11  25  43  61  96 141 165 211 278 329 395
#     4  10  21  40  66  97 130 175 223 269 325 395
#     4   9  19  36  63  94 128 167 221 270 318 382
#     4   9  20  41  65  93 125 175 229 271 317 390
#     4  12  23  40  67  95 123 175 222 265 328 396
#     4  10  21  41  63  90 134 166 213 275 328 381
#     4  10  22  40  64  93 130 172 209 270 328 386
#
# _framework density 25.722346000000002
#
# number of rings (size 3 to 8) (size 9 to 14) (size 15 to 20)
#    0.000    2.000    1.250    1.500    5.250    0.500 
#    4.500    5.625    0.000    0.000    0.000    0.000 
#    0.000    0.000    0.000    0.000    0.000    0.000 
#
# Total GULP energy -89514.383777 kJ/mol
# GULP energy per Si atom -5594.648986 kJ/mol
# Density = 2.566380 g / cm^3
# Si number density = 25.722346 Si / 1000 Ang^3
#
#
#
# Elastic Constant Matrix: (Units=GPa)
#
#
# Indices 1 2 3 4 5 6 
#
# 1 143.8065 56.0065 8.8789 17.0729 21.1389 9.1213
# 2 56.0065 129.2336 9.7686 3.8841 11.9029 -0.4624
# 3 8.8789 9.7686 42.1768 10.6941 -6.4641 1.1184
# 4 17.0729 3.8841 10.6941 28.1837 1.7679 -0.1759
# 5 21.1389 11.9029 -6.4641 1.7679 17.7209 -7.7266
# 6 9.1213 -0.4624 1.1184 -0.1759 -7.7266 42.5107
#
#
#
# Elastic Compliance Matrix: (Units=1/GPa)
#
#
# Indices 1 2 3 4 5 6 
#
# 1 0.011284 -0.003315 -0.002420 -0.004626 -0.013801 -0.004921
# 2 -0.003315 0.009637 -0.002557 0.001873 -0.003530 0.000250
# 3 -0.002420 -0.002557 0.030215 -0.010756 0.017971 0.002918
# 4 -0.004626 0.001873 -0.010756 0.042333 -0.003525 0.000830
# 5 -0.013801 -0.003530 0.017971 -0.003525 0.090397 0.018866
# 6 -0.004921 0.000250 0.002918 0.000830 0.018866 0.027938
#
#
# Mechanical properties :
#
#
# Convention : Reuss Voigt Hill
#
# Bulk Modulus (GPa) = 28.93973 51.61387 40.27680
# Shear Modulus (GPa) = 20.84156 33.72058 27.28107
#
# Velocity S-wave (km/s) = 2.84958 3.62463 3.26022
# Velocity P-wave (km/s) = 4.70128 6.13405 5.46482
#
# Compressibility (1/GPa) = 0.03455457
#
# Stress axis : x y z
#
# Youngs Moduli (GPa) = 88.62010 103.76164 33.09576
#
# Poissons Ratio (x) = 0.34395 0.08008
# Poissons Ratio (y) = 0.29376 0.08462
# Poissons Ratio (z) = 0.21442 0.26530
#
# Static dielectric constant tensor:
#      x y z
#    x 2.041840 0.042610 0.000640 
#    y 0.042610 2.080760 0.001880 
#    z 0.000640 0.001880 2.103520 
# 
# From -- ./inp_files/282736.got.cif
#   From: 2010.05.17/outbox.cif.g08.bks.cpg/sg2_142_cif.got.tgz:282736.got - 2010.06.03 11:33:40.
