data_PCOD9011394
_publ_section_title
;
Structure prediction by ZEFSAII (Michael W. Deem and Ramdas Pophale) SiO2 
 PCOD9011394
Probable space group: P -1
;
_chemical_formula_sum "Si O2"
_cell_formula_units_Z 12
_cell_length_a 8.787180
_cell_length_b 7.410368
_cell_length_c 12.201237
_cell_angle_alpha 86.389690
_cell_angle_beta 111.385179
_cell_angle_gamma 130.540655
_cell_volume 544.936113
_symmetry_space_group_name_H-M "P -1"
_symmetry_group_IT_number 2
_symmetry_cell_setting 'triclinic'
loop_
_space_group_symop_operation_xyz
x,y,z
-x,-y,-z
loop_
_atom_site_type_symbol
_atom_site_label
_atom_site_fract_x
_atom_site_fract_y
_atom_site_fract_z
Si Si1 0.796150 0.207054 0.663412
Si Si2 0.467232 0.300263 0.781230
Si Si3 0.454650 0.260099 0.531048
Si Si4 0.086695 0.265073 0.038393
Si Si5 0.638609 0.055498 0.880596
Si Si6 0.270283 0.488737 0.840597
O O1 0.865546 0.215749 0.002883
O O2 0.059966 0.417562 0.726978
O O3 0.717041 0.975125 0.581714
O O4 0.715629 0.116025 0.771175
O O5 0.378825 0.205532 0.639653
O O6 0.323386 0.333509 0.809460
O O7 0.497235 0.130753 0.854623
O O8 0.719795 0.568823 0.828527
O O9 0.500000 0.500000 0.500000
O O10 0.673090 0.294430 0.584403
O O11 0.203740 0.414569 0.951513
O O12 0.000000 0.000000 0.000000
O O13 0.486440 0.771143 0.873590
#
# Coordination Sequence:
#
# PCOD9011394 Si02
#       6
#     2   2   2   2   2   2
#     4   9  22  42  62  92 124 160 203 251 306 358
#     4  11  23  40  63  95 121 163 211 247 303 367
#     4  10  21  40  66  88 122 165 204 250 304 362
#     4  11  23  42  64  89 128 164 199 255 308 362
#     4  10  22  42  64  91 127 161 204 250 302 369
#     4  11  23  41  64  91 126 162 199 257 308 357
#
# _framework density 22.02093
#
# number of rings (size 3 to 8) (size 9 to 14) (size 15 to 20)
#    0.000    1.667    1.667    2.000    2.333    2.667 
#    6.000   11.667    0.000    0.000    0.000    0.000 
#    0.000    0.000    0.000    0.000    0.000    0.000 
#
# Total GULP energy -67144.558877 kJ/mol
# GULP energy per Si atom -5595.379906 kJ/mol
# Density = 2.197081 g / cm^3
# Si number density = 22.020930 Si / 1000 Ang^3
#
#
#
# Elastic Constant Matrix: (Units=GPa)
#
#
# Indices 1 2 3 4 5 6 
#
# 1 100.5885 31.3494 10.8963 0.0677 -0.6917 -7.2379
# 2 31.3494 58.7959 1.6145 4.5186 3.7622 -13.3276
# 3 10.8963 1.6145 66.6214 17.6065 -2.2033 6.9110
# 4 0.0677 4.5186 17.6065 26.1135 -6.8420 6.5935
# 5 -0.6917 3.7622 -2.2033 -6.8420 28.8950 11.5049
# 6 -7.2379 -13.3276 6.9110 6.5935 11.5049 37.7993
#
#
#
# Elastic Compliance Matrix: (Units=1/GPa)
#
#
# Indices 1 2 3 4 5 6 
#
# 1 0.012434 -0.007268 -0.002711 0.003969 0.002421 -0.001115
# 2 -0.007268 0.025309 0.002025 -0.011830 -0.011139 0.012616
# 3 -0.002711 0.002025 0.018955 -0.013564 -0.001974 -0.000304
# 4 0.003969 -0.011830 -0.013564 0.059778 0.021937 -0.018035
# 5 0.002421 -0.011139 -0.001974 0.021937 0.049976 -0.022140
# 6 -0.001115 0.012616 -0.000304 -0.018035 -0.022140 0.040630
#
#
# Mechanical properties :
#
#
# Convention : Reuss Voigt Hill
#
# Bulk Modulus (GPa) = 24.51559 34.85844 29.68702
# Shear Modulus (GPa) = 21.13385 30.70460 25.91922
#
# Velocity S-wave (km/s) = 3.10129 3.73813 3.43450
# Velocity P-wave (km/s) = 4.89704 5.87329 5.40724
#
# Compressibility (1/GPa) = 0.04079037
#
# Stress axis : x y z
#
# Youngs Moduli (GPa) = 80.42468 39.51130 52.75545
#
# Poissons Ratio (x) = 0.28717 0.14300
# Poissons Ratio (y) = 0.58453 -0.10681
# Poissons Ratio (z) = 0.21800 -0.07999
#
# Static dielectric constant tensor:
#      x y z
#    x 1.823830 -0.031320 0.020980 
#    y -0.031320 1.781110 0.003180 
#    z 0.020980 0.003180 1.829430 
# 
# From -- ./inp_files/213145.got.cif
#   From: 2010.05.17/outbox.cif.g08.bks.cpg/sg2_107_cif.got.tgz:213145.got - 2010.06.03 11:33:40.
