data_PCOD9011143
_publ_section_title
;
Structure prediction by ZEFSAII (Michael W. Deem and Ramdas Pophale) SiO2 
 PCOD9011143
Probable space group: P -1
;
_chemical_formula_sum "Si O2"
_cell_formula_units_Z 16
_cell_length_a 5.435247
_cell_length_b 8.917879
_cell_length_c 20.655893
_cell_angle_alpha 127.694760
_cell_angle_beta 59.796023
_cell_angle_gamma 93.437966
_cell_volume 638.211849
_symmetry_space_group_name_H-M "P -1"
_symmetry_group_IT_number 2
_symmetry_cell_setting 'triclinic'
loop_
_space_group_symop_operation_xyz
x,y,z
-x,-y,-z
loop_
_atom_site_type_symbol
_atom_site_label
_atom_site_fract_x
_atom_site_fract_y
_atom_site_fract_z
Si Si1 0.730967 0.004897 0.415595
Si Si2 0.176181 0.628747 0.543491
Si Si3 0.275804 0.224359 0.762007
Si Si4 0.212097 0.253283 0.254230
Si Si5 0.800422 0.732193 0.072068
Si Si6 0.730562 0.411170 0.736481
Si Si7 0.946567 0.100816 0.127267
Si Si8 0.738188 0.632891 0.920134
O O1 0.776197 0.215616 0.472348
O O2 0.500000 0.000000 0.500000
O O3 0.646884 0.975531 0.344253
O O4 0.028792 0.804105 0.331293
O O5 0.500000 0.500000 0.500000
O O6 0.000000 0.500000 0.500000
O O7 0.943801 0.763508 0.663464
O O8 0.360528 0.183390 0.815719
O O9 0.447453 0.355497 0.737319
O O10 0.939454 0.398164 0.851391
O O11 0.118910 0.489647 0.309661
O O12 0.579068 0.180712 0.189680
O O13 0.070257 0.155618 0.192235
O O14 0.012765 0.860060 0.058088
O O15 0.000000 0.500000 0.000000
O O16 0.603917 0.728469 0.032963
O O17 0.615535 0.575774 0.853611
O O18 0.097616 0.209238 0.084168
#
# Coordination Sequence:
#
# PCOD9011143 Si02
#       8
#     2   2   2   2   2   2   2   2
#     4  11  26  43  69  98 134 180 231 285 347 418
#     4  12  28  46  69 103 141 181 233 291 352 414
#     4  10  21  40  65  92 133 170 226 275 350 395
#     4  11  24  44  71  96 139 177 231 282 349 413
#     4  10  22  41  64  94 137 175 227 283 336 410
#     4  10  22  40  68  95 130 176 224 283 341 412
#     4  11  22  43  68  98 132 185 223 279 342 411
#     4   9  20  41  61  97 129 173 225 277 339 407
#
# _framework density 25.070043999999999
#
# number of rings (size 3 to 8) (size 9 to 14) (size 15 to 20)
#    0.000    1.500    1.250    2.625    5.250    1.000 
#    4.500    1.875    0.000    0.000    0.000    0.000 
#    0.000    0.000    0.000    0.000    0.000    0.000 
#
# Total GULP energy -89335.544104 kJ/mol
# GULP energy per Si atom -5583.471507 kJ/mol
# Density = 2.501298 g / cm^3
# Si number density = 25.070044 Si / 1000 Ang^3
#
#
#
# Elastic Constant Matrix: (Units=GPa)
#
#
# Indices 1 2 3 4 5 6 
#
# 1 95.4625 32.4709 35.2443 6.5734 14.0492 8.8140
# 2 32.4709 154.8234 40.1450 18.5714 0.8401 23.2537
# 3 35.2443 40.1450 96.4861 -14.2057 18.3030 -0.2589
# 4 6.5734 18.5714 -14.2057 43.8726 -1.5992 7.5459
# 5 14.0492 0.8401 18.3030 -1.5992 33.6662 9.5260
# 6 8.8140 23.2537 -0.2589 7.5459 9.5260 39.3109
#
#
#
# Elastic Compliance Matrix: (Units=1/GPa)
#
#
# Indices 1 2 3 4 5 6 
#
# 1 0.013135 -0.001187 -0.004131 -0.002742 -0.003052 -0.001004
# 2 -0.001187 0.009278 -0.004872 -0.004230 0.004261 -0.005475
# 3 -0.004131 -0.004872 0.016463 0.006938 -0.008059 0.004538
# 4 -0.002742 -0.004230 0.006938 0.027556 -0.000656 -0.001968
# 5 -0.003052 0.004261 -0.008059 -0.000656 0.038349 -0.011056
# 6 -0.001004 -0.005475 0.004538 -0.001968 -0.011056 0.031989
#
#
# Mechanical properties :
#
#
# Convention : Reuss Voigt Hill
#
# Bulk Modulus (GPa) = 54.07209 62.49914 58.28561
# Shear Modulus (GPa) = 30.61544 39.29739 34.95642
#
# Velocity S-wave (km/s) = 3.49835 3.96347 3.73815
# Velocity P-wave (km/s) = 6.15899 6.77712 6.47544
#
# Compressibility (1/GPa) = 0.01849383
#
# Stress axis : x y z
#
# Youngs Moduli (GPa) = 76.13193 107.78271 60.74248
#
# Poissons Ratio (x) = 0.12797 0.25095
# Poissons Ratio (y) = 0.09039 0.29596
# Poissons Ratio (z) = 0.31453 0.52516
#
# Static dielectric constant tensor:
#      x y z
#    x 2.833290 0.093710 -0.069220 
#    y 0.093710 2.059580 0.031840 
#    z -0.069220 0.031840 2.045170 
# 
# From -- ./inp_files/37242.got.cif
#   From: 2010.05.17/outbox.cif.g08.bks.cpg/sg2_19_cif.got.tgz:37242.got - 2010.06.03 11:33:40.
