data_PCOD9011315
_publ_section_title
;
Structure prediction by ZEFSAII (Michael W. Deem and Ramdas Pophale) SiO2 
 PCOD9011315
Probable space group: P -1
;
_chemical_formula_sum "Si O2"
_cell_formula_units_Z 16
_cell_length_a 19.776561
_cell_length_b 5.045069
_cell_length_c 7.341271
_cell_angle_alpha 74.288487
_cell_angle_beta 112.889528
_cell_angle_gamma 83.945549
_cell_volume 630.961910
_symmetry_space_group_name_H-M "P -1"
_symmetry_group_IT_number 2
_symmetry_cell_setting 'triclinic'
loop_
_space_group_symop_operation_xyz
x,y,z
-x,-y,-z
loop_
_atom_site_type_symbol
_atom_site_label
_atom_site_fract_x
_atom_site_fract_y
_atom_site_fract_z
Si Si1 0.083664 0.815197 0.650725
Si Si2 0.945577 0.290758 0.954943
Si Si3 0.568119 0.772350 0.391097
Si Si4 0.781101 0.479023 0.604444
Si Si5 0.586969 0.362111 0.173602
Si Si6 0.601279 0.278804 0.801989
Si Si7 0.827607 0.750223 0.284429
Si Si8 0.261824 0.074123 0.211309
O O1 0.090036 0.760247 0.881339
O O2 0.101659 0.515871 0.626319
O O3 0.144431 0.996891 0.636308
O O4 0.000000 0.000000 0.500000
O O5 0.872272 0.417147 0.734984
O O6 0.000000 0.500000 0.000000
O O7 0.000000 0.000000 0.000000
O O8 0.606903 0.579572 0.297942
O O9 0.585502 0.581747 0.625830
O O10 0.477756 0.816507 0.260606
O O11 0.588292 0.072492 0.336578
O O12 0.768553 0.644309 0.370256
O O13 0.759915 0.179846 0.652046
O O14 0.743299 0.670788 0.699785
O O15 0.500000 0.500000 0.000000
O O16 0.627964 0.305859 0.032455
O O17 0.660699 0.056965 0.787577
O O18 0.795563 0.833030 0.034178
#
# Coordination Sequence:
#
# PCOD9011315 Si02
#       8
#     2   2   2   2   2   2   2   2
#     4  12  23  42  68  98 129 164 215 267 329 392
#     4  12  22  39  66  98 128 162 213 270 324 386
#     4  10  23  41  65 100 134 168 228 281 323 390
#     4  12  26  46  66  95 136 173 220 276 330 394
#     4  10  21  40  65  97 134 168 217 280 330 384
#     4  10  24  41  68  95 132 180 220 274 336 387
#     4  12  24  46  66  92 132 171 213 271 323 392
#     4  12  26  45  65  96 135 178 222 269 332 409
#
# _framework density 25.358105999999999
#
# number of rings (size 3 to 8) (size 9 to 14) (size 15 to 20)
#    0.000    0.750    2.500    5.625    0.000   11.500 
#    0.000    0.000    0.000    0.000    0.000    0.000 
#    0.000    0.000    0.000    0.000    0.000    0.000 
#
# Total GULP energy -89770.691391 kJ/mol
# GULP energy per Si atom -5610.668212 kJ/mol
# Density = 2.530039 g / cm^3
# Si number density = 25.358106 Si / 1000 Ang^3
#
#
#
# Elastic Constant Matrix: (Units=GPa)
#
#
# Indices 1 2 3 4 5 6 
#
# 1 100.9644 30.3548 12.7314 -6.0605 -8.9865 -7.0815
# 2 30.3548 122.0337 5.9671 -16.1387 -4.3127 -0.9565
# 3 12.7314 5.9671 90.3454 -2.3120 -18.8296 -4.6232
# 4 -6.0605 -16.1387 -2.3120 35.4008 -11.9368 -5.0954
# 5 -8.9865 -4.3127 -18.8296 -11.9368 37.5286 -0.8914
# 6 -7.0815 -0.9565 -4.6232 -5.0954 -0.8914 45.5727
#
#
#
# Elastic Compliance Matrix: (Units=1/GPa)
#
#
# Indices 1 2 3 4 5 6 
#
# 1 0.011203 -0.002379 -0.000705 0.001981 0.002731 0.001894
# 2 -0.002379 0.009478 0.000309 0.004735 0.002191 0.000433
# 3 -0.000705 0.000309 0.012905 0.003662 0.007548 0.001763
# 4 0.001981 0.004735 0.003662 0.036665 0.014641 0.005165
# 5 0.002731 0.002191 0.007548 0.014641 0.036081 0.003579
# 6 0.001894 0.000433 0.001763 0.005165 0.003579 0.023073
#
#
# Mechanical properties :
#
#
# Convention : Reuss Voigt Hill
#
# Bulk Modulus (GPa) = 35.66725 45.71666 40.69196
# Shear Modulus (GPa) = 34.65007 41.31976 37.98491
#
# Velocity S-wave (km/s) = 3.70054 4.04102 3.87452
# Velocity P-wave (km/s) = 5.68811 6.31195 6.00813
#
# Compressibility (1/GPa) = 0.02803692
#
# Stress axis : x y z
#
# Youngs Moduli (GPa) = 89.25842 105.50639 77.49132
#
# Poissons Ratio (x) = 0.25100 0.05462
# Poissons Ratio (y) = 0.21234 -0.02396
# Poissons Ratio (z) = 0.06292 -0.03262
#
# Static dielectric constant tensor:
#      x y z
#    x 2.008050 -0.005350 0.048960 
#    y -0.005350 1.937830 -0.013630 
#    z 0.048960 -0.013630 2.111900 
# 
# From -- ./inp_files/339625.got.cif
#   From: 2010.05.17/outbox.cif.g08.bks.cpg/sg2_170_cif.got.tgz:339625.got - 2010.06.03 11:33:40.
