data_PCOD9011970
_publ_section_title
;
Structure prediction by ZEFSAII (Michael W. Deem and Ramdas Pophale) SiO2 
 PCOD9011970
Probable space group: P -1
;
_chemical_formula_sum "Si O2"
_cell_formula_units_Z 16
_cell_length_a 23.417819
_cell_length_b 7.976613
_cell_length_c 8.148669
_cell_angle_alpha 51.546410
_cell_angle_beta 32.626429
_cell_angle_gamma 49.442007
_cell_volume 613.170112
_symmetry_space_group_name_H-M "P -1"
_symmetry_group_IT_number 2
_symmetry_cell_setting 'triclinic'
loop_
_space_group_symop_operation_xyz
x,y,z
-x,-y,-z
loop_
_atom_site_type_symbol
_atom_site_label
_atom_site_fract_x
_atom_site_fract_y
_atom_site_fract_z
Si Si1 0.762568 0.210948 0.288104
Si Si2 0.067214 0.272480 0.779528
Si Si3 0.289750 0.309104 0.616724
Si Si4 0.521826 0.739934 0.563576
Si Si5 0.831493 0.647133 0.821884
Si Si6 0.438485 0.873954 0.349472
Si Si7 0.285632 0.861120 0.183428
Si Si8 0.142206 0.644840 0.547252
O O1 0.640990 0.235399 0.493014
O O2 0.752948 0.218766 0.503995
O O3 0.843032 0.953797 0.230743
O O4 0.810646 0.407380 0.983389
O O5 0.075055 0.294272 0.549402
O O6 0.093491 0.500821 0.629422
O O7 0.953516 0.269726 0.137608
O O8 0.374280 0.370056 0.503777
O O9 0.252632 0.457546 0.457327
O O10 0.352490 0.062614 0.552541
O O11 0.174329 0.340216 0.975023
O O12 0.520436 0.722473 0.379789
O O13 0.500000 0.000000 0.500000
O O14 0.407513 0.712771 0.927055
O O15 0.727563 0.876585 0.903945
O O16 0.500000 0.000000 0.000000
O O17 0.196035 0.845499 0.270435
#
# Coordination Sequence:
#
# PCOD9011970 Si02
#       8
#     2   2   2   2   2   2   2   2
#     4  11  23  44  68 105 143 186 236 293 355 423
#     4  10  26  47  72 103 146 177 248 300 357 417
#     4  11  22  44  70  99 140 186 239 277 358 419
#     4  10  21  40  68 101 137 184 234 283 344 429
#     4  11  24  43  69 105 142 186 237 291 346 434
#     4  11  23  41  71 104 144 188 235 295 351 419
#     4  11  23  44  71  98 148 184 238 288 351 427
#     4  11  24  49  71 103 137 194 235 302 359 414
#
# _framework density 26.093900999999999
#
# number of rings (size 3 to 8) (size 9 to 14) (size 15 to 20)
#    0.000    1.250    5.000    1.500    3.500    3.000 
#    4.500    1.875    0.000    0.000    0.000    0.000 
#    0.000    0.000    0.000    0.000    0.000    0.000 
#
# Total GULP energy -89229.205754 kJ/mol
# GULP energy per Si atom -5576.825360 kJ/mol
# Density = 2.603451 g / cm^3
# Si number density = 26.093901 Si / 1000 Ang^3
#
#
#
# Elastic Constant Matrix: (Units=GPa)
#
#
# Indices 1 2 3 4 5 6 
#
# 1 96.9019 12.4768 14.6256 -9.6143 -18.7350 5.2282
# 2 12.4768 85.0620 27.9565 -23.6616 -1.4554 -1.3798
# 3 14.6256 27.9565 121.0195 -12.0736 -1.7424 -0.2046
# 4 -9.6143 -23.6616 -12.0736 39.4717 4.4729 0.2280
# 5 -18.7350 -1.4554 -1.7424 4.4729 33.8699 -4.1220
# 6 5.2282 -1.3798 -0.2046 0.2280 -4.1220 42.9060
#
#
#
# Elastic Compliance Matrix: (Units=1/GPa)
#
#
# Indices 1 2 3 4 5 6 
#
# 1 0.011985 -0.000966 -0.001004 0.001330 0.006251 -0.000903
# 2 -0.000966 0.014971 -0.002550 0.008074 -0.001034 0.000445
# 3 -0.001004 -0.002550 0.009073 0.001039 -0.000330 0.000046
# 4 0.001330 0.008074 0.001039 0.031161 -0.003022 -0.000353
# 5 0.006251 -0.001034 -0.000330 -0.003022 0.033618 0.002449
# 6 -0.000903 0.000445 0.000046 -0.000353 0.002449 0.023668
#
#
# Mechanical properties :
#
#
# Convention : Reuss Voigt Hill
#
# Bulk Modulus (GPa) = 37.05293 45.90014 41.47654
# Shear Modulus (GPa) = 35.08454 39.77781 37.43118
#
# Velocity S-wave (km/s) = 3.67079 3.90861 3.79156
# Velocity P-wave (km/s) = 5.67423 6.16426 5.92432
#
# Compressibility (1/GPa) = 0.02698842
#
# Stress axis : x y z
#
# Youngs Moduli (GPa) = 83.43910 66.79374 110.22157
#
# Poissons Ratio (x) = 0.06450 0.11068
# Poissons Ratio (y) = 0.08057 0.28112
# Poissons Ratio (z) = 0.08379 0.17036
#
# Static dielectric constant tensor:
#      x y z
#    x 2.102340 0.031460 -0.009230 
#    y 0.031460 2.234560 -0.079150 
#    z -0.009230 -0.079150 2.169740 
# 
# From -- ./inp_files/356342.got.cif
#   From: 2010.05.17/outbox.cif.g08.bks.cpg/sg2_179_cif.got.tgz:356342.got - 2010.06.03 11:33:40.
