data_PCOD9011849
_publ_section_title
;
Structure prediction by ZEFSAII (Michael W. Deem and Ramdas Pophale) SiO2 
 PCOD9011849
Probable space group: P -1
;
_chemical_formula_sum "Si O2"
_cell_formula_units_Z 14
_cell_length_a 5.518895
_cell_length_b 13.222310
_cell_length_c 9.099687
_cell_angle_alpha 91.836564
_cell_angle_beta 73.387290
_cell_angle_gamma 80.771442
_cell_volume 625.940398
_symmetry_space_group_name_H-M "P -1"
_symmetry_group_IT_number 2
_symmetry_cell_setting 'triclinic'
loop_
_space_group_symop_operation_xyz
x,y,z
-x,-y,-z
loop_
_atom_site_type_symbol
_atom_site_label
_atom_site_fract_x
_atom_site_fract_y
_atom_site_fract_z
Si Si1 0.282439 0.934985 0.980225
Si Si2 0.770479 0.441325 0.885507
Si Si3 0.825258 0.181670 0.285729
Si Si4 0.548505 0.253680 0.870107
Si Si5 0.066066 0.361201 0.126404
Si Si6 0.548409 0.849067 0.397586
Si Si7 0.212695 0.056911 0.397380
O O1 0.327503 0.868622 0.816763
O O2 0.274232 0.848880 0.103437
O O3 0.500000 0.000000 0.000000
O O4 0.000000 0.000000 0.000000
O O5 0.703723 0.343805 0.806991
O O6 0.896969 0.532400 0.797288
O O7 0.500000 0.500000 0.000000
O O8 0.939991 0.395472 0.992639
O O9 0.672376 0.185012 0.464763
O O10 0.892652 0.289845 0.230710
O O11 0.095777 0.106755 0.270129
O O12 0.397442 0.223133 0.754021
O O13 0.343303 0.294534 0.034767
O O14 0.758596 0.857079 0.483674
O O15 0.459967 0.965456 0.354538
O O16 0.000000 0.000000 0.500000
#
# Coordination Sequence:
#
# PCOD9011849 Si02
#       7
#     2   2   2   2   2   2   2
#     4  12  27  40  64 101 140 174 229 282 328 394
#     4   9  20  40  67  93 124 162 219 280 340 397
#     4  11  23  41  62  92 128 175 215 273 329 389
#     4  11  23  40  64  96 130 173 220 275 337 395
#     4  10  21  40  67  96 123 166 223 279 337 394
#     4  10  23  38  61  87 133 175 218 261 327 398
#     4   9  21  39  59  83 129 180 220 249 323 389
#
# _framework density 22.366346
#
# number of rings (size 3 to 8) (size 9 to 14) (size 15 to 20)
#    0.000    1.714    1.429    1.714   10.000    2.286 
#    0.000    0.714    0.000    8.571    0.000    0.000 
#    0.000    0.000    0.000    0.000    0.000    0.000 
#
# Total GULP energy -78151.854945 kJ/mol
# GULP energy per Si atom -5582.275353 kJ/mol
# Density = 2.231544 g / cm^3
# Si number density = 22.366346 Si / 1000 Ang^3
#
#
#
# Elastic Constant Matrix: (Units=GPa)
#
#
# Indices 1 2 3 4 5 6 
#
# 1 107.3943 55.7706 12.4762 -7.1260 21.9710 16.3355
# 2 55.7706 144.8753 44.9795 -20.3710 4.3370 41.7347
# 3 12.4762 44.9795 65.0560 -9.8191 11.9872 16.1447
# 4 -7.1260 -20.3710 -9.8191 31.5297 12.2138 -0.3772
# 5 21.9710 4.3370 11.9872 12.2138 38.0036 -0.2671
# 6 16.3355 41.7347 16.1447 -0.3772 -0.2671 53.7633
#
#
#
# Elastic Compliance Matrix: (Units=1/GPa)
#
#
# Indices 1 2 3 4 5 6 
#
# 1 0.014334 -0.005299 0.004013 0.005161 -0.010617 -0.001464
# 2 -0.005299 0.013486 -0.006217 0.004758 0.001907 -0.006949
# 3 0.004013 -0.006217 0.023191 0.008611 -0.011717 -0.003355
# 4 0.005161 0.004758 0.008611 0.046814 -0.021342 -0.007625
# 5 -0.010617 0.001907 -0.011717 -0.021342 0.042826 0.005327
# 6 -0.001464 -0.006949 -0.003355 -0.007625 0.005327 0.025420
#
#
# Mechanical properties :
#
#
# Convention : Reuss Voigt Hill
#
# Bulk Modulus (GPa) = 27.77262 60.41980 44.09621
# Shear Modulus (GPa) = 25.89611 38.26594 32.08103
#
# Velocity S-wave (km/s) = 3.40636 4.14076 3.79138
# Velocity P-wave (km/s) = 5.28348 7.06636 6.23894
#
# Compressibility (1/GPa) = 0.03600668
#
# Stress axis : x y z
#
# Youngs Moduli (GPa) = 69.76336 74.14991 43.11928
#
# Poissons Ratio (x) = 0.39290 -0.17304
# Poissons Ratio (y) = 0.36966 0.26807
# Poissons Ratio (z) = -0.27997 0.46099
#
# Static dielectric constant tensor:
#      x y z
#    x 1.978700 -0.036270 -0.098760 
#    y -0.036270 1.878570 0.040870 
#    z -0.098760 0.040870 1.866900 
# 
# From -- ./inp_files/45482.got.cif
#   From: 2010.05.17/outbox.cif.g08.bks.cpg/sg2_23_cif.got.tgz:45482.got - 2010.06.03 11:33:40.
