data_PCOD9011700
_publ_section_title
;
Structure prediction by ZEFSAII (Michael W. Deem and Ramdas Pophale) SiO2 
 PCOD9011700
Probable space group: P -1
;
_chemical_formula_sum "Si O2"
_cell_formula_units_Z 14
_cell_length_a 12.084170
_cell_length_b 20.633910
_cell_length_c 14.155241
_cell_angle_alpha 23.678078
_cell_angle_beta 30.316475
_cell_angle_gamma 26.823340
_cell_volume 618.684457
_symmetry_space_group_name_H-M "P -1"
_symmetry_group_IT_number 2
_symmetry_cell_setting 'triclinic'
loop_
_space_group_symop_operation_xyz
x,y,z
-x,-y,-z
loop_
_atom_site_type_symbol
_atom_site_label
_atom_site_fract_x
_atom_site_fract_y
_atom_site_fract_z
Si Si1 0.448383 0.909999 0.006454
Si Si2 0.956599 0.269120 0.822605
Si Si3 0.236477 0.303251 0.118653
Si Si4 0.164464 0.449394 0.300405
Si Si5 0.920744 0.128356 0.537291
Si Si6 0.006373 0.215278 0.158108
Si Si7 0.464803 0.822336 0.751143
O O1 0.319202 0.830440 0.278467
O O2 0.557911 0.785484 0.998001
O O3 0.693547 0.900938 0.884981
O O4 0.233395 0.119749 0.858391
O O5 0.994392 0.363593 0.575983
O O6 0.812558 0.437874 0.778301
O O7 0.949842 0.086896 0.302585
O O8 0.113162 0.170648 0.395262
O O9 0.368695 0.307275 0.111469
O O10 0.000000 0.500000 0.000000
O O11 0.417520 0.280130 0.297294
O O12 0.046729 0.600522 0.102262
O O13 0.869174 0.236500 0.330899
O O14 0.190898 0.842612 0.935201
O O15 0.500000 0.000000 0.500000
#
# Coordination Sequence:
#
# PCOD9011700 Si02
#       7
#     2   2   2   2   2   2   2
#     4  11  22  43  72 101 133 176 231 286 345 413
#     4  11  26  46  70 106 138 183 233 288 348 412
#     4  11  26  45  64 100 138 181 232 279 347 419
#     4  11  25  47  69 103 142 178 240 287 344 414
#     4  10  21  40  67 101 134 177 223 291 345 400
#     4  10  22  41  71 105 134 173 232 293 351 398
#     4  12  26  46  70  99 145 191 225 280 352 417
#
# _framework density 22.628658999999999
#
# number of rings (size 3 to 8) (size 9 to 14) (size 15 to 20)
#    0.000    1.143    1.429    4.286    0.000    7.429 
#   15.429    0.000    0.000    0.000    0.000    0.000 
#    0.000    0.000    0.000    0.000    0.000    0.000 
#
# Total GULP energy -78316.668268 kJ/mol
# GULP energy per Si atom -5594.047733 kJ/mol
# Density = 2.257715 g / cm^3
# Si number density = 22.628659 Si / 1000 Ang^3
#
#
#
# Elastic Constant Matrix: (Units=GPa)
#
#
# Indices 1 2 3 4 5 6 
#
# 1 66.0493 22.1774 27.7551 0.6414 -13.3273 -5.1448
# 2 22.1774 81.1425 53.8594 1.7147 -5.7708 15.9426
# 3 27.7551 53.8594 178.6419 13.5831 -10.2377 -2.9157
# 4 0.6414 1.7147 13.5831 45.5773 0.6286 10.3525
# 5 -13.3273 -5.7708 -10.2377 0.6286 33.8762 3.7474
# 6 -5.1448 15.9426 -2.9157 10.3525 3.7474 23.1615
#
#
#
# Elastic Compliance Matrix: (Units=1/GPa)
#
#
# Indices 1 2 3 4 5 6 
#
# 1 0.019182 -0.006077 -0.000560 -0.001838 0.005457 0.008312
# 2 -0.006077 0.022238 -0.006438 0.005756 0.001590 -0.020297
# 3 -0.000560 -0.006438 0.008046 -0.003725 0.000418 0.006917
# 4 -0.001838 0.005756 -0.003725 0.026679 0.000500 -0.016845
# 5 0.005457 0.001590 0.000418 0.000500 0.032644 -0.005335
# 6 0.008312 -0.020297 0.006917 -0.016845 -0.005335 0.068256
#
#
# Mechanical properties :
#
#
# Convention : Reuss Voigt Hill
#
# Bulk Modulus (GPa) = 42.89040 59.26860 51.07950
# Shear Modulus (GPa) = 23.70023 35.32579 29.51301
#
# Velocity S-wave (km/s) = 3.23980 3.95537 3.61533
# Velocity P-wave (km/s) = 5.74371 6.86357 6.32846
#
# Compressibility (1/GPa) = 0.02331524
#
# Stress axis : x y z
#
# Youngs Moduli (GPa) = 52.13091 44.96839 124.28651
#
# Poissons Ratio (x) = 0.27329 0.06959
# Poissons Ratio (y) = 0.31682 0.80017
# Poissons Ratio (z) = 0.02919 0.28951
#
# Static dielectric constant tensor:
#      x y z
#    x 1.836460 0.016260 0.023650 
#    y 0.016260 1.845770 -0.030530 
#    z 0.023650 -0.030530 1.874890 
# 
# From -- ./inp_files/438570.got.cif
#   From: 2010.05.17/outbox.cif.g08.bks.cpg/sg2_220_cif.got.tgz:438570.got - 2010.06.03 11:33:40.
