data_PCOD9011806
_publ_section_title
;
Structure prediction by ZEFSAII (Michael W. Deem and Ramdas Pophale) SiO2 
 PCOD9011806
Probable space group: P -1
;
_chemical_formula_sum "Si O2"
_cell_formula_units_Z 16
_cell_length_a 11.006822
_cell_length_b 15.550819
_cell_length_c 9.039605
_cell_angle_alpha 132.047968
_cell_angle_beta 67.796256
_cell_angle_gamma 140.539617
_cell_volume 697.743459
_symmetry_space_group_name_H-M "P -1"
_symmetry_group_IT_number 2
_symmetry_cell_setting 'triclinic'
loop_
_space_group_symop_operation_xyz
x,y,z
-x,-y,-z
loop_
_atom_site_type_symbol
_atom_site_label
_atom_site_fract_x
_atom_site_fract_y
_atom_site_fract_z
Si Si1 0.696603 0.205893 0.989668
Si Si2 0.044313 0.418380 0.642221
Si Si3 0.287120 0.443514 0.108447
Si Si4 0.311089 0.945096 0.451469
Si Si5 0.688726 0.896367 0.958540
Si Si6 0.358100 0.238369 0.865840
Si Si7 0.455458 0.582015 0.516322
Si Si8 0.099319 0.736944 0.770607
O O1 0.695854 0.092415 0.760045
O O2 0.880929 0.416769 0.121501
O O3 0.501215 0.148097 0.973873
O O4 0.717691 0.187556 0.130328
O O5 0.248533 0.494006 0.578452
O O6 0.894084 0.241286 0.600931
O O7 0.929193 0.358773 0.471214
O O8 0.411459 0.579397 0.072312
O O9 0.420623 0.538254 0.307968
O O10 0.090094 0.381609 0.170773
O O11 0.248249 0.281496 0.910613
O O12 0.500000 0.000000 0.500000
O O13 0.320162 0.087569 0.639619
O O14 0.632433 0.790178 0.713733
O O15 0.696909 0.814585 0.997798
O O16 0.866810 0.106727 0.112264
O O17 0.500000 0.500000 0.500000
#
# Coordination Sequence:
#
# PCOD9011806 Si02
#       8
#     2   2   2   2   2   2   2   2
#     4  11  24  40  62  98 133 168 212 266 325 385
#     4  10  23  41  63  98 126 172 212 264 327 386
#     4  10  25  43  67  92 128 176 209 273 319 385
#     4  12  24  41  66  95 130 175 214 265 323 384
#     4  11  22  41  67  93 127 170 214 270 316 387
#     4  11  23  44  64  90 131 166 223 250 329 379
#     4  10  21  40  67  94 123 164 216 268 325 379
#     4  11  23  42  65  97 127 167 218 267 328 375
#
# _framework density 22.931063999999999
#
# number of rings (size 3 to 8) (size 9 to 14) (size 15 to 20)
#    0.000    1.250    3.750    1.125    3.500    3.500 
#    2.250    0.625    0.000    0.000    0.000    0.000 
#    0.000    0.000    0.000    0.000    0.000    0.000 
#
# Total GULP energy -89405.264102 kJ/mol
# GULP energy per Si atom -5587.829006 kJ/mol
# Density = 2.287887 g / cm^3
# Si number density = 22.931064 Si / 1000 Ang^3
#
#
#
# Elastic Constant Matrix: (Units=GPa)
#
#
# Indices 1 2 3 4 5 6 
#
# 1 33.7025 1.7494 15.1601 6.0261 -5.1946 -9.3773
# 2 1.7494 71.4916 -17.2247 15.1307 -9.6992 -4.7541
# 3 15.1601 -17.2247 116.0065 11.4541 -19.7773 2.0854
# 4 6.0261 15.1307 11.4541 30.9725 -9.1071 -5.8705
# 5 -5.1946 -9.6992 -19.7773 -9.1071 31.0025 3.9408
# 6 -9.3773 -4.7541 2.0854 -5.8705 3.9408 26.0046
#
#
#
# Elastic Compliance Matrix: (Units=1/GPa)
#
#
# Indices 1 2 3 4 5 6 
#
# 1 0.035806 -0.000578 -0.004660 -0.002424 0.000539 0.012551
# 2 -0.000578 0.017681 0.004541 -0.008513 0.005850 -0.000148
# 3 -0.004660 0.004541 0.011634 -0.004190 0.007319 -0.003838
# 4 -0.002424 -0.008513 -0.004190 0.041319 0.005583 0.006387
# 5 0.000539 0.005850 0.007319 0.005583 0.041029 -0.004280
# 6 0.012551 -0.000148 -0.003838 0.006387 -0.004280 0.045352
#
#
# Mechanical properties :
#
#
# Convention : Reuss Voigt Hill
#
# Bulk Modulus (GPa) = 15.69149 24.50779 20.09964
# Shear Modulus (GPa) = 23.20657 32.36362 27.78509
#
# Velocity S-wave (km/s) = 3.18467 3.76086 3.48469
# Velocity P-wave (km/s) = 4.51448 5.43779 4.99751
#
# Compressibility (1/GPa) = 0.06372883
#
# Stress axis : x y z
#
# Youngs Moduli (GPa) = 27.92837 56.55636 85.95606
#
# Poissons Ratio (x) = 0.03270 0.40051
# Poissons Ratio (y) = 0.01615 -0.39037
# Poissons Ratio (z) = 0.13013 -0.25685
#
# Static dielectric constant tensor:
#      x y z
#    x 1.847250 -0.018180 0.010310 
#    y -0.018180 1.890250 0.034670 
#    z 0.010310 0.034670 1.869370 
# 
# From -- ./inp_files/207932.got.cif
#   From: 2010.05.17/outbox.cif.g08.bks.cpg/sg2_104_cif.got.tgz:207932.got - 2010.06.03 11:33:40.
