data_PCOD9011125
_publ_section_title
;
Structure prediction by ZEFSAII (Michael W. Deem and Ramdas Pophale) SiO2 
 PCOD9011125
Probable space group: P -1
;
_chemical_formula_sum "Si O2"
_cell_formula_units_Z 14
_cell_length_a 16.460387
_cell_length_b 10.187734
_cell_length_c 5.591872
_cell_angle_alpha 70.471446
_cell_angle_beta 120.251496
_cell_angle_gamma 133.253991
_cell_volume 589.871993
_symmetry_space_group_name_H-M "P -1"
_symmetry_group_IT_number 2
_symmetry_cell_setting 'triclinic'
loop_
_space_group_symop_operation_xyz
x,y,z
-x,-y,-z
loop_
_atom_site_type_symbol
_atom_site_label
_atom_site_fract_x
_atom_site_fract_y
_atom_site_fract_z
Si Si1 0.494369 0.316612 0.010988
Si Si2 0.746980 0.506990 0.422889
Si Si3 0.212703 0.955298 0.306536
Si Si4 0.037683 0.387442 0.001237
Si Si5 0.609460 0.043308 0.787349
Si Si6 0.677420 0.672537 0.912046
Si Si7 0.214039 0.690463 0.754926
O O1 0.565050 0.462158 0.814203
O O2 0.603801 0.403694 0.318326
O O3 0.386018 0.300316 0.981544
O O4 0.446424 0.118829 0.005690
O O5 0.853567 0.592159 0.718417
O O6 0.741220 0.352289 0.379384
O O7 0.774272 0.656593 0.180864
O O8 0.304525 0.963290 0.258061
O O9 0.200303 0.840578 0.584573
O O10 0.265004 0.160884 0.282111
O O11 0.079478 0.819418 0.074364
O O12 0.093408 0.496303 0.771161
O O13 0.000000 0.500000 0.000000
O O14 0.500000 0.000000 0.500000
O O15 0.690545 0.228914 0.937024
#
# Coordination Sequence:
#
# PCOD9011125 Si02
#       7
#     2   2   2   2   2   2   2
#     4   8  17  39  65  85 124 163 200 249 303 368
#     4  10  21  40  65  92 127 161 206 254 307 362
#     4  11  23  40  63  90 124 164 210 248 306 372
#     4  12  23  40  62  91 124 168 205 259 307 356
#     4  11  22  38  64  94 121 160 207 254 310 364
#     4   8  19  41  65  88 127 166 201 250 310 368
#     4  12  23  38  64  93 123 159 208 260 309 358
#
# _framework density 23.733961999999998
#
# number of rings (size 3 to 8) (size 9 to 14) (size 15 to 20)
#    0.857    0.857    2.857    2.143    0.000    2.857 
#    0.000    4.286    0.000    0.000    0.000    0.000 
#    0.000    0.000    0.000    0.000    0.000    0.000 
#
# Total GULP energy -78059.751770 kJ/mol
# GULP energy per Si atom -5575.696555 kJ/mol
# Density = 2.367994 g / cm^3
# Si number density = 23.733962 Si / 1000 Ang^3
#
#
#
# Elastic Constant Matrix: (Units=GPa)
#
#
# Indices 1 2 3 4 5 6 
#
# 1 26.8399 16.8705 20.0303 -3.5883 14.1677 4.3405
# 2 16.8705 137.9436 19.6209 -23.2702 16.9445 9.9323
# 3 20.0303 19.6209 91.3507 1.2400 29.6808 3.5539
# 4 -3.5883 -23.2702 1.2400 51.9099 -0.1757 7.3347
# 5 14.1677 16.9445 29.6808 -0.1757 29.4161 -1.2031
# 6 4.3405 9.9323 3.5539 7.3347 -1.2031 22.4789
#
#
#
# Elastic Compliance Matrix: (Units=1/GPa)
#
#
# Indices 1 2 3 4 5 6 
#
# 1 0.055780 -0.001853 -0.004312 0.004749 -0.021909 -0.011992
# 2 -0.001853 0.009251 0.000114 0.004787 -0.004751 -0.005564
# 3 -0.004312 0.000114 0.016893 -0.000336 -0.015142 -0.002589
# 4 0.004749 0.004787 -0.000336 0.023260 -0.005010 -0.010837
# 5 -0.021909 -0.004751 -0.015142 -0.005010 0.063094 0.013735
# 6 -0.011992 -0.005564 -0.002589 -0.010837 0.013735 0.053941
#
#
# Mechanical properties :
#
#
# Convention : Reuss Voigt Hill
#
# Bulk Modulus (GPa) = 14.32195 41.01972 27.67083
# Shear Modulus (GPa) = 19.41038 34.06848 26.73943
#
# Velocity S-wave (km/s) = 2.86288 3.79282 3.36017
# Velocity P-wave (km/s) = 4.12014 6.04163 5.17092
#
# Compressibility (1/GPa) = 0.06982290
#
# Stress axis : x y z
#
# Youngs Moduli (GPa) = 17.92759 108.09232 59.19694
#
# Poissons Ratio (x) = 0.20027 0.25527
# Poissons Ratio (y) = 0.03322 -0.00677
# Poissons Ratio (z) = 0.07731 -0.01236
#
# Static dielectric constant tensor:
#      x y z
#    x 1.910830 0.023650 0.007320 
#    y 0.023650 1.974040 -0.072890 
#    z 0.007320 -0.072890 1.970950 
# 
# From -- ./inp_files/109615.got.cif
#   From: 2010.05.17/outbox.cif.g08.bks.cpg/sg2_55_cif.got.tgz:109615.got - 2010.06.03 11:33:40.
