data_PCOD9011878
_publ_section_title
;
Structure prediction by ZEFSAII (Michael W. Deem and Ramdas Pophale) SiO2 
 PCOD9011878
Probable space group: P -1
;
_chemical_formula_sum "Si O2"
_cell_formula_units_Z 16
_cell_length_a 23.917201
_cell_length_b 29.611878
_cell_length_c 12.047301
_cell_angle_alpha 31.498530
_cell_angle_beta 149.081072
_cell_angle_gamma 169.947455
_cell_volume 762.255115
_symmetry_space_group_name_H-M "P -1"
_symmetry_group_IT_number 2
_symmetry_cell_setting 'triclinic'
loop_
_space_group_symop_operation_xyz
x,y,z
-x,-y,-z
loop_
_atom_site_type_symbol
_atom_site_label
_atom_site_fract_x
_atom_site_fract_y
_atom_site_fract_z
Si Si1 0.117249 0.133572 0.191752
Si Si2 0.360076 0.747430 0.635560
Si Si3 0.057053 0.689130 0.595909
Si Si4 0.582797 0.375061 0.644595
Si Si5 0.819387 0.568537 0.077319
Si Si6 0.480411 0.856679 0.873007
Si Si7 0.393222 0.530730 0.858051
Si Si8 0.581424 0.462650 0.687122
O O1 0.329919 0.239802 0.422198
O O2 0.258662 0.210328 0.152555
O O3 0.199321 0.296724 0.992762
O O4 0.748297 0.835911 0.216676
O O5 0.384470 0.670575 0.788090
O O6 0.388683 0.772961 0.763976
O O7 0.000000 0.500000 0.500000
O O8 0.631934 0.014924 0.492485
O O9 0.196174 0.699353 0.778379
O O10 0.872388 0.562307 0.663523
O O11 0.810885 0.543159 0.389008
O O12 0.670704 0.503117 0.629416
O O13 0.454987 0.188948 0.868069
O O14 0.609520 0.465942 0.021794
O O15 0.856058 0.638092 0.873367
O O16 0.183118 0.836560 0.186538
O O17 0.500000 0.500000 0.500000
#
# Coordination Sequence:
#
# PCOD9011878 Si02
#       8
#     2   2   2   2   2   2   2   2
#     4  10  22  42  66  93 132 173 225 277 329 380
#     4  12  23  41  67  98 130 171 222 267 320 393
#     4  11  23  42  68  97 135 175 219 271 332 388
#     4  11  24  43  67  97 134 180 218 272 333 393
#     4  12  23  39  68  98 130 173 219 271 332 387
#     4  12  23  45  67  96 140 173 220 269 330 399
#     4  10  21  40  67  97 127 173 221 279 328 381
#     4  12  24  40  62  95 133 174 221 268 328 397
#
# _framework density 20.990347
#
# number of rings (size 3 to 8) (size 9 to 14) (size 15 to 20)
#    0.000    0.750    3.750    4.875    0.000    1.500 
#    0.000    3.750    0.000    0.000    0.000    0.000 
#    0.000    0.000    0.000    0.000    0.000    0.000 
#
# Total GULP energy -89386.252455 kJ/mol
# GULP energy per Si atom -5586.640778 kJ/mol
# Density = 2.094257 g / cm^3
# Si number density = 20.990347 Si / 1000 Ang^3
#
#
#
# Elastic Constant Matrix: (Units=GPa)
#
#
# Indices 1 2 3 4 5 6 
#
# 1 137.6952 31.7284 11.5906 2.3367 -4.0259 9.6074
# 2 31.7284 47.5539 -6.2303 1.9213 -16.6950 3.4191
# 3 11.5906 -6.2303 53.7389 -0.7273 3.4477 0.5451
# 4 2.3367 1.9213 -0.7273 27.1853 -0.9025 -0.4266
# 5 -4.0259 -16.6950 3.4477 -0.9025 39.9765 -3.0827
# 6 9.6074 3.4191 0.5451 -0.4266 -3.0827 26.3192
#
#
#
# Elastic Compliance Matrix: (Units=1/GPa)
#
#
# Indices 1 2 3 4 5 6 
#
# 1 0.009232 -0.006992 -0.002655 -0.000478 -0.001976 -0.002646
# 2 -0.006992 0.030370 0.004274 -0.001049 0.011576 -0.000143
# 3 -0.002655 0.004274 0.019694 0.000447 -0.000171 -0.000007
# 4 -0.000478 -0.001049 0.000447 0.036939 0.000382 0.000945
# 5 -0.001976 0.011576 -0.000171 0.000382 0.029884 0.002727
# 6 -0.002646 -0.000143 -0.000007 0.000945 0.002727 0.039314
#
#
# Mechanical properties :
#
#
# Convention : Reuss Voigt Hill
#
# Bulk Modulus (GPa) = 20.59716 34.79615 27.69666
# Shear Modulus (GPa) = 25.99274 32.15617 29.07446
#
# Velocity S-wave (km/s) = 3.52279 3.91826 3.72578
# Velocity P-wave (km/s) = 5.13622 6.08963 5.63313
#
# Compressibility (1/GPa) = 0.04855039
#
# Stress axis : x y z
#
# Youngs Moduli (GPa) = 108.32089 32.92717 50.77786
#
# Poissons Ratio (x) = 0.23021 0.13479
# Poissons Ratio (y) = 0.75733 -0.21700
# Poissons Ratio (z) = 0.28755 -0.14072
#
# Static dielectric constant tensor:
#      x y z
#    x 1.798160 -0.015930 0.052440 
#    y -0.015930 1.744580 0.019760 
#    z 0.052440 0.019760 1.853280 
# 
# From -- ./inp_files/81408.got.cif
#   From: 2010.05.17/outbox.cif.g08.bks.cpg/sg2_41_cif.got.tgz:81408.got - 2010.06.03 11:33:40.
