data_PCOD9011305
_publ_section_title
;
Structure prediction by ZEFSAII (Michael W. Deem and Ramdas Pophale) SiO2 
 PCOD9011305
Probable space group: P -1
;
_chemical_formula_sum "Si O2"
_cell_formula_units_Z 15
_cell_length_a 8.046604
_cell_length_b 8.814127
_cell_length_c 15.974813
_cell_angle_alpha 134.244825
_cell_angle_beta 128.391923
_cell_angle_gamma 50.343600
_cell_volume 592.287479
_symmetry_space_group_name_H-M "P -1"
_symmetry_group_IT_number 2
_symmetry_cell_setting 'triclinic'
loop_
_space_group_symop_operation_xyz
x,y,z
-x,-y,-z
loop_
_atom_site_type_symbol
_atom_site_label
_atom_site_fract_x
_atom_site_fract_y
_atom_site_fract_z
Si Si1 0.500000 0.000000 0.500000
Si Si2 0.973105 0.146209 0.967337
Si Si3 0.206160 0.110701 0.301004
Si Si4 0.684229 0.617720 0.111341
Si Si5 0.409840 0.545020 0.302607
Si Si6 0.749050 0.701173 0.987370
Si Si7 0.981791 0.397460 0.662974
Si Si8 0.097961 0.695131 0.576292
O O1 0.576812 0.900228 0.582267
O O2 0.456533 0.766841 0.373291
O O3 0.782612 0.098205 0.834313
O O4 0.909507 0.395631 0.079281
O O5 0.197746 0.097864 0.964277
O O6 0.000000 0.000000 0.000000
O O7 0.103173 0.342562 0.301981
O O8 0.029400 0.116395 0.323147
O O9 0.765970 0.691685 0.251312
O O10 0.500000 0.500000 0.000000
O O11 0.652151 0.768027 0.075953
O O12 0.378612 0.408909 0.158404
O O13 0.197883 0.610671 0.325894
O O14 0.635102 0.387390 0.361519
O O15 0.000000 0.500000 0.000000
O O16 0.981510 0.251354 0.523167
O O17 0.000000 0.500000 0.500000
#
# Coordination Sequence:
#
# PCOD9011305 Si02
#       8
#     1   2   2   2   2   2   2   2
#     4  12  24  36  70  94 126 170 216 280 330 368
#     4  11  21  43  70  97 135 172 220 275 335 394
#     4  11  24  43  66  95 135 172 222 273 328 397
#     4  11  24  40  69  99 132 180 223 275 331 399
#     4  12  22  42  71  93 131 173 229 266 336 402
#     4  10  21  40  65  97 130 178 216 267 340 402
#     4  11  22  44  69  93 134 178 223 261 340 413
#     4  10  23  41  66  92 128 180 219 263 333 394
#
# _framework density 25.325538999999999
#
# number of rings (size 3 to 8) (size 9 to 14) (size 15 to 20)
#    0.000    1.067    6.667    2.000    3.733    1.067 
#    0.000    4.667    2.933    0.000    0.000    0.000 
#    0.000    0.000    0.000    0.000    0.000    0.000 
#
# Total GULP energy -83527.262527 kJ/mol
# GULP energy per Si atom -5568.484168 kJ/mol
# Density = 2.526790 g / cm^3
# Si number density = 25.325539 Si / 1000 Ang^3
#
#
#
# Elastic Constant Matrix: (Units=GPa)
#
#
# Indices 1 2 3 4 5 6 
#
# 1 61.7391 18.5544 21.9591 -23.2749 0.4305 10.0441
# 2 18.5544 66.0420 36.1818 -24.4103 -7.5960 21.3032
# 3 21.9591 36.1818 205.2377 -43.9060 5.0296 2.4128
# 4 -23.2749 -24.4103 -43.9060 46.7177 -1.9863 -10.0575
# 5 0.4305 -7.5960 5.0296 -1.9863 35.0495 -6.7352
# 6 10.0441 21.3032 2.4128 -10.0575 -6.7352 30.6906
#
#
#
# Elastic Compliance Matrix: (Units=1/GPa)
#
#
# Indices 1 2 3 4 5 6 
#
# 1 0.020436 -0.001723 0.000021 0.008669 -0.000674 -0.002801
# 2 -0.001723 0.024095 -0.002571 0.006663 0.003490 -0.013010
# 3 0.000021 -0.002571 0.006442 0.005313 -0.000628 0.002874
# 4 0.008669 0.006663 0.005313 0.035301 0.003429 0.004441
# 5 -0.000674 0.003490 -0.000628 0.003429 0.030676 0.005704
# 6 -0.002801 -0.013010 0.002874 0.004441 0.005704 0.045011
#
#
# Mechanical properties :
#
#
# Convention : Reuss Voigt Hill
#
# Bulk Modulus (GPa) = 23.56911 54.04549 38.80730
# Shear Modulus (GPa) = 27.07849 39.57979 33.32914
#
# Velocity S-wave (km/s) = 3.27344 3.95757 3.63165
# Velocity P-wave (km/s) = 4.85941 6.50152 5.73949
#
# Compressibility (1/GPa) = 0.04242841
#
# Stress axis : x y z
#
# Youngs Moduli (GPa) = 48.93319 41.50245 155.24134
#
# Poissons Ratio (x) = 0.07150 -0.00330
# Poissons Ratio (y) = 0.08430 0.39905
# Poissons Ratio (z) = -0.00104 0.10668
#
# Static dielectric constant tensor:
#      x y z
#    x 2.263380 0.030630 -0.037010 
#    y 0.030630 2.198750 -0.035150 
#    z -0.037010 -0.035150 1.928630 
# 
# From -- ./inp_files/491496.got.cif
#   From: 2010.05.17/outbox.cif.g08.bks.cpg/sg2_246_cif.got.tgz:491496.got - 2010.06.03 11:33:40.
