data_PCOD9011124
_publ_section_title
;
Structure prediction by ZEFSAII (Michael W. Deem and Ramdas Pophale) SiO2 
 PCOD9011124
Probable space group: P -1
;
_chemical_formula_sum "Si O2"
_cell_formula_units_Z 16
_cell_length_a 7.071351
_cell_length_b 28.911234
_cell_length_c 5.146655
_cell_angle_alpha 97.209184
_cell_angle_beta 93.265844
_cell_angle_gamma 135.271567
_cell_volume 718.352349
_symmetry_space_group_name_H-M "P -1"
_symmetry_group_IT_number 2
_symmetry_cell_setting 'triclinic'
loop_
_space_group_symop_operation_xyz
x,y,z
-x,-y,-z
loop_
_atom_site_type_symbol
_atom_site_label
_atom_site_fract_x
_atom_site_fract_y
_atom_site_fract_z
Si Si1 0.727834 0.179180 0.957072
Si Si2 0.171359 0.417277 0.630197
Si Si3 0.460845 0.709886 0.365844
Si Si4 0.468956 0.432944 0.166372
Si Si5 0.106296 0.966887 0.504689
Si Si6 0.583789 0.838847 0.580598
Si Si7 0.349396 0.307441 0.134810
Si Si8 0.325411 0.936958 0.137883
O O1 0.559591 0.158244 0.664698
O O2 0.769285 0.131537 0.994843
O O3 0.561517 0.172530 0.173943
O O4 0.027425 0.255392 0.008913
O O5 0.249283 0.412166 0.348363
O O6 0.263341 0.487669 0.706586
O O7 0.858113 0.353591 0.634615
O O8 0.357372 0.423950 0.863633
O O9 0.543702 0.777726 0.470456
O O10 0.623511 0.706836 0.581912
O O11 0.525598 0.705823 0.075235
O O12 0.500097 0.383688 0.172159
O O13 0.093939 0.927672 0.242238
O O14 0.907260 0.908619 0.660924
O O15 0.429979 0.030323 0.616509
O O16 0.000000 0.000000 0.500000
O O17 0.500000 0.000000 0.000000
#
# Coordination Sequence:
#
# PCOD9011124 Si02
#       8
#     2   2   2   2   2   2   2   2
#     4  12  26  45  67  95 127 174 218 266 327 385
#     4  10  21  40  65  92 126 168 221 254 324 385
#     4  12  25  41  64  96 129 170 211 270 323 390
#     4  10  21  40  65  92 126 171 211 269 311 392
#     4  11  24  45  66  99 131 171 220 266 335 389
#     4  12  26  44  70  91 130 172 220 265 323 396
#     4  12  25  41  64  94 134 164 215 268 329 379
#     4  11  26  41  70  96 134 170 216 278 322 397
#
# _framework density 22.273192999999999
#
# number of rings (size 3 to 8) (size 9 to 14) (size 15 to 20)
#    0.000    0.750    1.250    6.000    5.250    2.000 
#    0.000    0.000    0.000    0.000    0.000    0.000 
#    0.000    0.000    0.000    0.000    0.000    0.000 
#
# Total GULP energy -89496.274666 kJ/mol
# GULP energy per Si atom -5593.517167 kJ/mol
# Density = 2.222250 g / cm^3
# Si number density = 22.273193 Si / 1000 Ang^3
#
#
#
# Elastic Constant Matrix: (Units=GPa)
#
#
# Indices 1 2 3 4 5 6 
#
# 1 67.7273 25.2178 -0.6115 7.3561 -18.6167 -19.6009
# 2 25.2178 110.5874 -4.8199 6.4149 -16.0644 -11.6972
# 3 -0.6115 -4.8199 51.4833 -7.9205 -2.8300 -9.6421
# 4 7.3561 6.4149 -7.9205 31.0564 0.0169 -3.0320
# 5 -18.6167 -16.0644 -2.8300 0.0169 37.0117 -3.0651
# 6 -19.6009 -11.6972 -9.6421 -3.0320 -3.0651 52.5226
#
#
#
# Elastic Compliance Matrix: (Units=1/GPa)
#
#
# Indices 1 2 3 4 5 6 
#
# 1 0.021208 -0.002179 0.001635 -0.003367 0.010523 0.008149
# 2 -0.002179 0.010397 0.001335 -0.001108 0.003676 0.001898
# 3 0.001635 0.001335 0.021595 0.005369 0.003496 0.005386
# 4 -0.003367 -0.001108 0.005369 0.034732 -0.001664 0.001390
# 5 0.010523 0.003676 0.003496 -0.001664 0.034782 0.007321
# 6 0.008149 0.001898 0.005386 0.001390 0.007321 0.023999
#
#
# Mechanical properties :
#
#
# Convention : Reuss Voigt Hill
#
# Bulk Modulus (GPa) = 18.25494 29.93008 24.09251
# Shear Modulus (GPa) = 30.60134 38.11891 34.36013
#
# Velocity S-wave (km/s) = 3.71065 4.14143 3.93194
# Velocity P-wave (km/s) = 5.15483 6.02789 5.60837
#
# Compressibility (1/GPa) = 0.05477970
#
# Stress axis : x y z
#
# Youngs Moduli (GPa) = 47.15241 96.18445 46.30725
#
# Poissons Ratio (x) = 0.20959 -0.07569
# Poissons Ratio (y) = 0.10275 -0.06180
# Poissons Ratio (z) = -0.07708 -0.12836
#
# Static dielectric constant tensor:
#      x y z
#    x 1.853100 0.013310 0.063110 
#    y 0.013310 1.821940 0.038120 
#    z 0.063110 0.038120 1.884910 
# 
# From -- ./inp_files/14495.got.cif
#   From: 2010.05.17/outbox.cif.g08.bks.cpg/sg2_8_cif.got.tgz:14495.got - 2010.06.03 11:33:40.
