data_PCOD9011166
_publ_section_title
;
Structure prediction by ZEFSAII (Michael W. Deem and Ramdas Pophale) SiO2 
 PCOD9011166
Probable space group: P -1
;
_chemical_formula_sum "Si O2"
_cell_formula_units_Z 16
_cell_length_a 12.134835
_cell_length_b 19.722277
_cell_length_c 9.109409
_cell_angle_alpha 58.251888
_cell_angle_beta 121.611275
_cell_angle_gamma 155.979382
_cell_volume 748.670480
_symmetry_space_group_name_H-M "P -1"
_symmetry_group_IT_number 2
_symmetry_cell_setting 'triclinic'
loop_
_space_group_symop_operation_xyz
x,y,z
-x,-y,-z
loop_
_atom_site_type_symbol
_atom_site_label
_atom_site_fract_x
_atom_site_fract_y
_atom_site_fract_z
Si Si1 0.784089 0.189576 0.037884
Si Si2 0.109799 0.993280 0.691802
Si Si3 0.700333 0.353174 0.334402
Si Si4 0.077597 0.250422 0.371046
Si Si5 0.283044 0.675159 0.289169
Si Si6 0.747204 0.573397 0.133434
Si Si7 0.308339 0.358589 0.719581
Si Si8 0.222551 0.159291 0.074714
O O1 0.883518 0.220647 0.234688
O O2 0.768021 0.273707 0.897945
O O3 0.019758 0.287550 0.981117
O O4 0.500000 0.000000 0.000000
O O5 0.421241 0.189802 0.718134
O O6 0.000000 0.000000 0.500000
O O7 0.061948 0.888905 0.677738
O O8 0.927084 0.889652 0.827754
O O9 0.662687 0.289444 0.536706
O O10 0.707402 0.455106 0.250085
O O11 0.439480 0.209635 0.213282
O O12 0.978703 0.473031 0.317130
O O13 0.123240 0.246220 0.573969
O O14 0.389496 0.443371 0.328611
O O15 0.830395 0.651018 0.261969
O O16 0.500000 0.500000 0.000000
O O17 0.346796 0.298591 0.907342
O O18 0.000000 0.000000 0.000000
#
# Coordination Sequence:
#
# PCOD9011166 Si02
#       8
#     2   2   2   2   2   2   2   2
#     4  11  21  36  63  87 125 165 207 258 309 375
#     4  12  23  40  68  98 124 165 218 263 317 384
#     4  10  21  40  65  93 128 167 210 259 320 382
#     4  11  23  41  64  94 129 165 214 264 313 379
#     4  10  22  38  65  92 123 170 214 256 317 383
#     4  11  19  38  67  95 119 165 214 251 312 381
#     4  11  23  38  63  97 128 163 211 267 317 368
#     4  12  24  40  65  97 130 162 209 271 320 375
#
# _framework density 21.371217000000001
#
# number of rings (size 3 to 8) (size 9 to 14) (size 15 to 20)
#    0.000    1.000    5.000    3.000    0.000    0.000 
#    0.000    1.250    8.250    0.000    0.000    0.000 
#    0.000    0.000    0.000    0.000    0.000    0.000 
#
# Total GULP energy -89149.952841 kJ/mol
# GULP energy per Si atom -5571.872053 kJ/mol
# Density = 2.132258 g / cm^3
# Si number density = 21.371217 Si / 1000 Ang^3
#
#
#
# Elastic Constant Matrix: (Units=GPa)
#
#
# Indices 1 2 3 4 5 6 
#
# 1 31.9654 10.5847 9.4312 9.3454 2.8248 13.5496
# 2 10.5847 77.1217 6.5483 18.8245 -6.7598 25.5579
# 3 9.4312 6.5483 124.7135 19.7158 5.9794 10.2416
# 4 9.3454 18.8245 19.7158 45.5481 1.9179 5.2448
# 5 2.8248 -6.7598 5.9794 1.9179 29.9036 4.1439
# 6 13.5496 25.5579 10.2416 5.2448 4.1439 42.3048
#
#
#
# Elastic Compliance Matrix: (Units=1/GPa)
#
#
# Indices 1 2 3 4 5 6 
#
# 1 0.038179 -0.000185 -0.000950 -0.006015 -0.001550 -0.010989
# 2 -0.000185 0.018938 0.000771 -0.007082 0.006164 -0.011294
# 3 -0.000950 0.000771 0.008827 -0.003701 -0.001022 -0.001740
# 4 -0.006015 -0.007082 -0.003701 0.027371 -0.002597 0.003962
# 5 -0.001550 0.006164 -0.001022 -0.002597 0.036211 -0.006205
# 6 -0.010989 -0.011294 -0.001740 0.003962 -0.006205 0.034519
#
#
# Mechanical properties :
#
#
# Convention : Reuss Voigt Hill
#
# Bulk Modulus (GPa) = 15.33365 31.88100 23.60733
# Shear Modulus (GPa) = 26.80798 37.36705 32.08752
#
# Velocity S-wave (km/s) = 3.54559 4.18601 3.87904
# Velocity P-wave (km/s) = 4.89409 6.18981 5.57969
#
# Compressibility (1/GPa) = 0.06521603
#
# Stress axis : x y z
#
# Youngs Moduli (GPa) = 26.19240 52.80320 113.29261
#
# Poissons Ratio (x) = 0.00978 0.10761
# Poissons Ratio (y) = 0.00485 -0.08737
# Poissons Ratio (z) = 0.02488 -0.04072
#
# Static dielectric constant tensor:
#      x y z
#    x 1.709900 -0.133020 -0.043210 
#    y -0.133020 1.816920 -0.142020 
#    z -0.043210 -0.142020 1.834410 
# 
# From -- ./inp_files/282030.got.cif
#   From: 2010.05.17/outbox.cif.g08.bks.cpg/sg2_142_cif.got.tgz:282030.got - 2010.06.03 11:33:40.
