data_PCOD9011217
_publ_section_title
;
Structure prediction by ZEFSAII (Michael W. Deem and Ramdas Pophale) SiO2 
 PCOD9011217
Probable space group: P -1
;
_chemical_formula_sum "Si O2"
_cell_formula_units_Z 16
_cell_length_a 21.294568
_cell_length_b 12.606287
_cell_length_c 11.349890
_cell_angle_alpha 55.267470
_cell_angle_beta 38.637508
_cell_angle_gamma 25.747673
_cell_volume 718.854235
_symmetry_space_group_name_H-M "P -1"
_symmetry_group_IT_number 2
_symmetry_cell_setting 'triclinic'
loop_
_space_group_symop_operation_xyz
x,y,z
-x,-y,-z
loop_
_atom_site_type_symbol
_atom_site_label
_atom_site_fract_x
_atom_site_fract_y
_atom_site_fract_z
Si Si1 0.664993 0.721382 0.362309
Si Si2 0.750063 0.289585 0.135635
Si Si3 0.337683 0.191857 0.261990
Si Si4 0.097328 0.598976 0.553756
Si Si5 0.020119 0.067390 0.678950
Si Si6 0.586749 0.557844 0.447589
Si Si7 0.172768 0.352387 0.064195
Si Si8 0.069133 0.244513 0.647997
O O1 0.550329 0.737350 0.446722
O O2 0.792015 0.658418 0.117244
O O3 0.826972 0.473842 0.377531
O O4 0.500000 0.000000 0.500000
O O5 0.633673 0.507953 0.269393
O O6 0.611322 0.315862 0.318659
O O7 0.794480 0.288844 0.938019
O O8 0.000000 0.000000 0.000000
O O9 0.155752 0.466555 0.274113
O O10 0.299763 0.309126 0.366748
O O11 0.249042 0.147612 0.423524
O O12 0.594015 0.906594 0.047702
O O13 0.018612 0.814886 0.461693
O O14 0.923701 0.679464 0.751294
O O15 0.134716 0.038931 0.618732
O O16 0.191614 0.755349 0.622497
O O17 0.008929 0.646558 0.172741
#
# Coordination Sequence:
#
# PCOD9011217 Si02
#       8
#     2   2   2   2   2   2   2   2
#     4  12  25  46  65  87 129 175 224 270 306 382
#     4   9  20  43  68 102 129 162 206 262 324 386
#     4   9  18  35  55  92 129 162 203 259 317 381
#     4  10  23  42  60  94 128 167 220 261 323 376
#     4  10  21  40  65  94 134 162 204 273 317 392
#     4  10  23  43  69  99 126 171 212 255 331 380
#     4  11  21  38  63  91 124 174 213 266 320 374
#     4   9  19  32  59  92 127 159 203 258 325 380
#
# _framework density 22.257642000000001
#
# number of rings (size 3 to 8) (size 9 to 14) (size 15 to 20)
#    0.000    2.000    1.250    2.250    0.000    6.500 
#    9.000    0.625    0.000    0.000    0.000    0.000 
#    0.000    0.000    0.000    0.000    0.000    0.000 
#
# Total GULP energy -89329.143970 kJ/mol
# GULP energy per Si atom -5583.071498 kJ/mol
# Density = 2.220698 g / cm^3
# Si number density = 22.257642 Si / 1000 Ang^3
#
#
#
# Elastic Constant Matrix: (Units=GPa)
#
#
# Indices 1 2 3 4 5 6 
#
# 1 88.3628 37.8484 39.2085 5.2550 5.1126 -0.4653
# 2 37.8484 92.8391 36.1781 -2.4541 11.4350 -7.5954
# 3 39.2085 36.1781 107.3637 -9.1429 -0.1395 -5.8486
# 4 5.2550 -2.4541 -9.1429 29.2666 -6.9518 8.3964
# 5 5.1126 11.4350 -0.1395 -6.9518 35.4390 -4.8496
# 6 -0.4653 -7.5954 -5.8486 8.3964 -4.8496 49.3219
#
#
#
# Elastic Compliance Matrix: (Units=1/GPa)
#
#
# Indices 1 2 3 4 5 6 
#
# 1 0.015731 -0.004532 -0.004668 -0.004980 -0.001862 -0.000439
# 2 -0.004532 0.014441 -0.003162 -0.000308 -0.003876 0.001477
# 3 -0.004668 -0.003162 0.012538 0.005045 0.002783 0.000371
# 4 -0.004980 -0.000308 0.005045 0.040089 0.007943 -0.005540
# 5 -0.001862 -0.003876 0.002783 0.007943 0.031506 0.001461
# 6 -0.000439 0.001477 0.000371 -0.005540 0.001461 0.021629
#
#
# Mechanical properties :
#
#
# Convention : Reuss Voigt Hill
#
# Bulk Modulus (GPa) = 55.59921 57.22618 56.41270
# Shear Modulus (GPa) = 30.00229 34.49423 32.24826
#
# Velocity S-wave (km/s) = 3.67543 3.94098 3.81052
# Velocity P-wave (km/s) = 6.56093 6.81726 6.69032
#
# Compressibility (1/GPa) = 0.01798587
#
# Stress axis : x y z
#
# Youngs Moduli (GPa) = 63.56803 69.24542 79.75937
#
# Poissons Ratio (x) = 0.31384 0.37232
# Poissons Ratio (y) = 0.28811 0.25219
# Poissons Ratio (z) = 0.29674 0.21894
#
# Static dielectric constant tensor:
#      x y z
#    x 1.831960 -0.022280 0.036490 
#    y -0.022280 1.909390 -0.037690 
#    z 0.036490 -0.037690 1.842370 
# 
# From -- ./inp_files/470964.got.cif
#   From: 2010.05.17/outbox.cif.g08.bks.cpg/sg2_236_cif.got.tgz:470964.got - 2010.06.03 11:33:40.
