data_PCOD9011152
_publ_section_title
;
Structure prediction by ZEFSAII (Michael W. Deem and Ramdas Pophale) SiO2 
 PCOD9011152
Probable space group: P -1
;
_chemical_formula_sum "Si O2"
_cell_formula_units_Z 14
_cell_length_a 10.964257
_cell_length_b 11.347283
_cell_length_c 5.601548
_cell_angle_alpha 81.487117
_cell_angle_beta 119.132066
_cell_angle_gamma 75.170231
_cell_volume 556.959931
_symmetry_space_group_name_H-M "P -1"
_symmetry_group_IT_number 2
_symmetry_cell_setting 'triclinic'
loop_
_space_group_symop_operation_xyz
x,y,z
-x,-y,-z
loop_
_atom_site_type_symbol
_atom_site_label
_atom_site_fract_x
_atom_site_fract_y
_atom_site_fract_z
Si Si1 0.606753 0.124485 0.708910
Si Si2 0.857691 0.978895 0.604656
Si Si3 0.680296 0.877871 0.082494
Si Si4 0.341173 0.329686 0.540870
Si Si5 0.803496 0.450143 0.370815
Si Si6 0.112534 0.350482 0.942645
Si Si7 0.157522 0.801971 0.797984
O O1 0.460650 0.252345 0.474196
O O2 0.730926 0.049839 0.655512
O O3 0.698227 0.179434 0.960914
O O4 0.565954 0.007919 0.815498
O O5 0.776326 0.923221 0.347450
O O6 0.017091 0.859427 0.832029
O O7 0.896110 0.096987 0.501557
O O8 0.622560 0.778822 0.188084
O O9 0.795180 0.792557 0.019417
O O10 0.334932 0.460019 0.621410
O O11 0.174905 0.357327 0.264202
O O12 0.842018 0.550544 0.207995
O O13 0.798397 0.339310 0.224670
O O14 0.939407 0.384834 0.706435
#
# Coordination Sequence:
#
# PCOD9011152 Si02
#       7
#     2   2   2   2   2   2   2
#     4  11  24  40  63  96 130 166 204 256 320 378
#     4  10  21  40  65  93 123 163 215 260 310 363
#     4  10  21  40  66  94 125 164 208 264 311 368
#     4  11  24  40  63  96 130 166 204 256 320 378
#     4  10  22  42  65  91 122 167 214 261 305 369
#     4  10  21  40  65  93 123 163 215 260 310 363
#     4  10  22  42  65  91 122 167 214 261 305 369
#
# _framework density 25.136457
#
# number of rings (size 3 to 8) (size 9 to 14) (size 15 to 20)
#    0.000    1.714    1.429    2.143    0.000    8.571 
#    5.143    1.429    0.000    0.000    0.000    0.000 
#    0.000    0.000    0.000    0.000    0.000    0.000 
#
# Total GULP energy -78230.998440 kJ/mol
# GULP energy per Si atom -5587.928460 kJ/mol
# Density = 2.507925 g / cm^3
# Si number density = 25.136457 Si / 1000 Ang^3
#
#
#
# Elastic Constant Matrix: (Units=GPa)
#
#
# Indices 1 2 3 4 5 6 
#
# 1 62.3892 40.4788 18.5677 -3.0556 4.9427 -13.3092
# 2 40.4788 228.5517 33.1292 0.7349 8.4791 -16.6548
# 3 18.5677 33.1292 63.5727 1.6924 12.9878 -3.5659
# 4 -3.0556 0.7349 1.6924 33.7465 -0.9644 4.2879
# 5 4.9427 8.4791 12.9878 -0.9644 30.3679 3.0030
# 6 -13.3092 -16.6548 -3.5659 4.2879 3.0030 32.3191
#
#
#
# Elastic Compliance Matrix: (Units=1/GPa)
#
#
# Indices 1 2 3 4 5 6 
#
# 1 0.020450 -0.002501 -0.004014 0.001216 -0.001534 0.006671
# 2 -0.002501 0.005210 -0.001793 -0.000461 -0.000450 0.001560
# 3 -0.004014 -0.001793 0.019379 -0.001559 -0.007227 0.000439
# 4 0.001216 -0.000461 -0.001559 0.030412 0.001971 -0.004127
# 5 -0.001534 -0.000450 -0.007227 0.001971 0.036988 -0.005359
# 6 0.006671 0.001560 0.000439 -0.004127 -0.005359 0.035587
#
#
# Mechanical properties :
#
#
# Convention : Reuss Voigt Hill
#
# Bulk Modulus (GPa) = 35.18252 59.87390 47.52821
# Shear Modulus (GPa) = 28.71637 36.77589 32.74613
#
# Velocity S-wave (km/s) = 3.38364 3.82913 3.61326
# Velocity P-wave (km/s) = 5.41224 6.58946 6.02965
#
# Compressibility (1/GPa) = 0.02842321
#
# Stress axis : x y z
#
# Youngs Moduli (GPa) = 48.90002 191.93633 51.60100
#
# Poissons Ratio (x) = 0.48001 0.20714
# Poissons Ratio (y) = 0.12229 0.09252
# Poissons Ratio (z) = 0.19630 0.34414
#
# Static dielectric constant tensor:
#      x y z
#    x 2.089960 -0.091930 -0.057350 
#    y -0.091930 1.985510 0.001380 
#    z -0.057350 0.001380 2.013910 
# 
# From -- ./inp_files/70014.got.cif
#   From: 2010.05.17/outbox.cif.g08.bks.cpg/sg2_36_cif.got.tgz:70014.got - 2010.06.03 11:33:40.
