data_PCOD9011084
_publ_section_title
;
Structure prediction by ZEFSAII (Michael W. Deem and Ramdas Pophale) SiO2 
 PCOD9011084
Probable space group: P -1
;
_chemical_formula_sum "Si O2"
_cell_formula_units_Z 16
_cell_length_a 11.433799
_cell_length_b 8.440458
_cell_length_c 11.690037
_cell_angle_alpha 137.437073
_cell_angle_beta 65.661208
_cell_angle_gamma 117.867871
_cell_volume 670.235960
_symmetry_space_group_name_H-M "P -1"
_symmetry_group_IT_number 2
_symmetry_cell_setting 'triclinic'
loop_
_space_group_symop_operation_xyz
x,y,z
-x,-y,-z
loop_
_atom_site_type_symbol
_atom_site_label
_atom_site_fract_x
_atom_site_fract_y
_atom_site_fract_z
Si Si1 0.316546 0.933271 0.494810
Si Si2 0.830061 0.192875 0.960064
Si Si3 0.228101 0.311316 0.367384
Si Si4 0.457934 0.757174 0.547851
Si Si5 0.111873 0.406399 0.029688
Si Si6 0.028576 0.774863 0.435929
Si Si7 0.315026 0.431263 0.143207
Si Si8 0.573509 0.987403 0.081495
O O1 0.367292 0.887611 0.575203
O O2 0.159607 0.881414 0.516655
O O3 0.356170 0.722479 0.289633
O O4 0.402751 0.189126 0.546975
O O5 0.836477 0.442734 0.025641
O O6 0.780813 0.972959 0.773663
O O7 0.727345 0.133361 0.073566
O O8 0.979584 0.201277 0.942009
O O9 0.367123 0.483671 0.445623
O O10 0.226929 0.362047 0.258376
O O11 0.101349 0.350861 0.504815
O O12 0.479309 0.882533 0.726995
O O13 0.061996 0.587987 0.232317
O O14 0.228211 0.339960 0.017680
O O15 0.000000 0.000000 0.500000
O O16 0.427103 0.288923 0.035837
O O17 0.500000 0.000000 0.000000
#
# Coordination Sequence:
#
# PCOD9011084 Si02
#       8
#     2   2   2   2   2   2   2   2
#     4   9  22  42  66  95 134 171 219 269 327 388
#     4  10  22  41  61  96 131 171 216 263 331 381
#     4  10  21  40  67  94 129 167 225 266 326 383
#     4  10  22  44  65  95 131 171 222 271 327 389
#     4  10  21  40  65  90 135 166 214 268 328 387
#     4  11  21  37  65  98 129 172 213 276 327 382
#     4   9  22  41  66  94 127 175 209 275 326 381
#     4  11  25  41  65  96 129 170 221 270 322 391
#
# _framework density 23.87219
#
# number of rings (size 3 to 8) (size 9 to 14) (size 15 to 20)
#    0.000    2.000    1.250    0.750    3.500    9.000 
#    0.000   15.000    0.000    0.000    0.000    0.000 
#    0.000    0.000    0.000    0.000    0.000    0.000 
#
# Total GULP energy -89517.613735 kJ/mol
# GULP energy per Si atom -5594.850858 kJ/mol
# Density = 2.381786 g / cm^3
# Si number density = 23.872190 Si / 1000 Ang^3
#
#
#
# Elastic Constant Matrix: (Units=GPa)
#
#
# Indices 1 2 3 4 5 6 
#
# 1 108.3590 23.7490 28.2643 17.0937 19.9862 -9.0041
# 2 23.7490 76.2923 14.5936 10.8283 4.9138 24.8122
# 3 28.2643 14.5936 49.9223 -0.9176 15.1485 -1.0314
# 4 17.0937 10.8283 -0.9176 28.0984 2.1576 6.3913
# 5 19.9862 4.9138 15.1485 2.1576 34.9345 -0.8285
# 6 -9.0041 24.8122 -1.0314 6.3913 -0.8285 35.2341
#
#
#
# Elastic Compliance Matrix: (Units=1/GPa)
#
#
# Indices 1 2 3 4 5 6 
#
# 1 0.014619 -0.004666 -0.005515 -0.008825 -0.004573 0.008353
# 2 -0.004666 0.020530 -0.004109 -0.001802 0.001309 -0.015412
# 3 -0.005515 -0.004109 0.027022 0.006247 -0.008348 0.000945
# 4 -0.008825 -0.001802 0.006247 0.043876 -0.000324 -0.008770
# 5 -0.004573 0.001309 -0.008348 -0.000324 0.034662 -0.001461
# 6 0.008353 -0.015412 0.000945 -0.008770 -0.001461 0.042954
#
#
# Mechanical properties :
#
#
# Convention : Reuss Voigt Hill
#
# Bulk Modulus (GPa) = 29.76855 40.86525 35.31690
# Shear Modulus (GPa) = 22.37747 30.85120 26.61434
#
# Velocity S-wave (km/s) = 3.06500 3.59883 3.34259
# Velocity P-wave (km/s) = 5.00227 5.86722 5.45192
#
# Compressibility (1/GPa) = 0.03359250
#
# Stress axis : x y z
#
# Youngs Moduli (GPa) = 68.40235 48.71010 37.00679
#
# Poissons Ratio (x) = 0.22726 0.20410
# Poissons Ratio (y) = 0.31914 0.15205
# Poissons Ratio (z) = 0.37725 0.20013
#
# Static dielectric constant tensor:
#      x y z
#    x 1.922220 -0.000280 -0.011570 
#    y -0.000280 1.953030 0.026760 
#    z -0.011570 0.026760 1.915310 
# 
# From -- ./inp_files/418398.got.cif
#   From: 2010.05.17/outbox.cif.g08.bks.cpg/sg2_210_cif.got.tgz:418398.got - 2010.06.03 11:33:40.
