data_PCOD9011279
_publ_section_title
;
Structure prediction by ZEFSAII (Michael W. Deem and Ramdas Pophale) SiO2 
 PCOD9011279
Probable space group: P -1
;
_chemical_formula_sum "Si O2"
_cell_formula_units_Z 14
_cell_length_a 12.445727
_cell_length_b 9.356258
_cell_length_c 7.287406
_cell_angle_alpha 81.469760
_cell_angle_beta 88.568814
_cell_angle_gamma 48.009559
_cell_volume 620.547967
_symmetry_space_group_name_H-M "P -1"
_symmetry_group_IT_number 2
_symmetry_cell_setting 'triclinic'
loop_
_space_group_symop_operation_xyz
x,y,z
-x,-y,-z
loop_
_atom_site_type_symbol
_atom_site_label
_atom_site_fract_x
_atom_site_fract_y
_atom_site_fract_z
Si Si1 0.693097 0.617017 0.846427
Si Si2 0.383377 0.759706 0.283199
Si Si3 0.773195 0.830049 0.937066
Si Si4 0.844260 0.931036 0.277948
Si Si5 0.888635 0.181214 0.836670
Si Si6 0.568586 0.332994 0.271956
Si Si7 0.135837 0.327740 0.404273
O O1 0.707414 0.728920 0.976188
O O2 0.536922 0.689271 0.810332
O O3 0.749037 0.650512 0.652371
O O4 0.804663 0.384710 0.905795
O O5 0.502001 0.553119 0.212845
O O6 0.425994 0.708673 0.503622
O O7 0.230668 0.814479 0.247289
O O8 0.351018 0.948906 0.175530
O O9 0.894276 0.701367 0.795774
O O10 0.838950 0.839982 0.112344
O O11 0.005972 0.842635 0.314692
O O12 0.797356 0.867348 0.453831
O O13 0.729021 0.163789 0.220679
O O14 0.000000 0.000000 0.000000
O O15 0.000000 0.500000 0.500000
#
# Coordination Sequence:
#
# PCOD9011279 Si02
#       7
#     2   2   2   2   2   2   2
#     4   9  22  42  66  92 133 166 212 270 319 379
#     4  10  21  42  62  89 132 166 214 265 318 369
#     4  10  22  40  65  97 128 166 210 277 310 385
#     4  12  22  39  69  97 129 172 215 262 329 380
#     4  11  22  40  65  94 128 171 211 270 318 380
#     4  10  22  41  66  93 128 175 212 265 322 384
#     4  10  21  40  65  96 129 167 214 265 320 381
#
# _framework density 22.560703
#
# number of rings (size 3 to 8) (size 9 to 14) (size 15 to 20)
#    0.857    0.857    4.286    0.000    0.000    6.286 
#    0.000    0.000    0.000    0.000    0.000    0.000 
#    0.000    0.000    0.000    0.000    0.000    0.000 
#
# Total GULP energy -78182.184186 kJ/mol
# GULP energy per Si atom -5584.441728 kJ/mol
# Density = 2.250935 g / cm^3
# Si number density = 22.560703 Si / 1000 Ang^3
#
#
#
# Elastic Constant Matrix: (Units=GPa)
#
#
# Indices 1 2 3 4 5 6 
#
# 1 58.8532 41.5473 12.5536 -4.2461 10.4224 6.1656
# 2 41.5473 105.5191 -14.9073 -2.7166 2.4848 2.6140
# 3 12.5536 -14.9073 61.1642 3.7987 -4.7983 2.2419
# 4 -4.2461 -2.7166 3.7987 43.8810 4.4749 -4.5242
# 5 10.4224 2.4848 -4.7983 4.4749 23.2477 -3.9411
# 6 6.1656 2.6140 2.2419 -4.5242 -3.9411 32.9691
#
#
#
# Elastic Compliance Matrix: (Units=1/GPa)
#
#
# Indices 1 2 3 4 5 6 
#
# 1 0.033725 -0.014270 -0.011879 0.004631 -0.017933 -0.005876
# 2 -0.014270 0.015901 0.007379 -0.001572 0.006778 0.001501
# 3 -0.011879 0.007379 0.021538 -0.003467 0.009796 0.000867
# 4 0.004631 -0.001572 -0.003467 0.024357 -0.006973 0.002003
# 5 -0.017933 0.006778 0.009796 -0.006973 0.055012 0.007769
# 6 -0.005876 0.001501 0.000867 0.002003 0.007769 0.032456
#
#
# Mechanical properties :
#
#
# Convention : Reuss Voigt Hill
#
# Bulk Modulus (GPa) = 29.74162 33.76931 31.75546
# Shear Modulus (GPa) = 21.57627 32.44242 27.00934
#
# Velocity S-wave (km/s) = 3.09587 3.79622 3.46379
# Velocity P-wave (km/s) = 5.09811 5.84942 5.48664
#
# Compressibility (1/GPa) = 0.03362292
#
# Stress axis : x y z
#
# Youngs Moduli (GPa) = 29.65199 62.89007 46.42987
#
# Poissons Ratio (x) = 0.89743 0.55153
# Poissons Ratio (y) = 0.42313 -0.34258
# Poissons Ratio (z) = 0.35223 -0.46404
#
# Static dielectric constant tensor:
#      x y z
#    x 1.823710 0.009010 -0.051270 
#    y 0.009010 1.886870 0.003470 
#    z -0.051270 0.003470 1.850590 
# 
# From -- ./inp_files/243529.got.cif
#   From: 2010.05.17/outbox.cif.g08.bks.cpg/sg2_122_cif.got.tgz:243529.got - 2010.06.03 11:33:40.
