data_PCOD9011441
_publ_section_title
;
Structure prediction by ZEFSAII (Michael W. Deem and Ramdas Pophale) SiO2 
 PCOD9011441
Probable space group: P -1
;
_chemical_formula_sum "Si O2"
_cell_formula_units_Z 16
_cell_length_a 16.015307
_cell_length_b 21.015676
_cell_length_c 9.988357
_cell_angle_alpha 114.822478
_cell_angle_beta 124.489615
_cell_angle_gamma 18.893246
_cell_volume 808.149826
_symmetry_space_group_name_H-M "P -1"
_symmetry_group_IT_number 2
_symmetry_cell_setting 'triclinic'
loop_
_space_group_symop_operation_xyz
x,y,z
-x,-y,-z
loop_
_atom_site_type_symbol
_atom_site_label
_atom_site_fract_x
_atom_site_fract_y
_atom_site_fract_z
Si Si1 0.074713 0.530766 0.061014
Si Si2 0.929691 0.396757 0.385229
Si Si3 0.838256 0.781286 0.280455
Si Si4 0.271952 0.235945 0.307520
Si Si5 0.204427 0.680680 0.797082
Si Si6 0.240360 0.900107 0.573268
Si Si7 0.206437 0.679074 0.485757
Si Si8 0.393678 0.839379 0.367715
O O1 0.423790 0.321448 0.243529
O O2 0.823657 0.740499 0.104508
O O3 0.000000 0.500000 0.000000
O O4 0.020115 0.574264 0.892084
O O5 0.896346 0.334638 0.292400
O O6 0.603437 0.652837 0.299143
O O7 0.031633 0.346104 0.585572
O O8 0.176029 0.262798 0.382478
O O9 0.083304 0.680830 0.371084
O O10 0.540812 0.016743 0.279610
O O11 0.403033 0.227638 0.450817
O O12 0.288257 0.638120 0.679601
O O13 0.500000 0.500000 0.000000
O O14 0.908948 0.926215 0.768824
O O15 0.293976 0.859843 0.426171
O O16 0.000000 0.000000 0.500000
O O17 0.073775 0.084866 0.601040
O O18 0.500000 0.500000 0.500000
#
# Coordination Sequence:
#
# PCOD9011441 Si02
#       8
#     2   2   2   2   2   2   2   2
#     4  12  23  41  64 100 134 167 225 276 320 385
#     4  11  23  41  70  92 130 177 216 264 338 391
#     4  11  21  41  66  93 131 175 212 276 330 388
#     4  12  23  41  65 100 129 170 221 269 327 395
#     4  10  24  44  64  93 132 167 221 273 321 393
#     4  11  22  39  65  91 131 169 215 267 331 390
#     4  10  21  40  66  91 124 173 218 261 336 395
#     4  11  22  44  67  93 133 173 216 272 332 393
#
# _framework density 19.798309
#
# number of rings (size 3 to 8) (size 9 to 14) (size 15 to 20)
#    0.000    1.000    6.250    1.875    1.750    3.500 
#    2.250    0.000    0.000    0.000    0.000    0.000 
#    0.000    0.000    0.000    0.000    0.000    0.000 
#
# Total GULP energy -89378.379745 kJ/mol
# GULP energy per Si atom -5586.148734 kJ/mol
# Density = 1.975325 g / cm^3
# Si number density = 19.798309 Si / 1000 Ang^3
#
#
#
# Elastic Constant Matrix: (Units=GPa)
#
#
# Indices 1 2 3 4 5 6 
#
# 1 125.6978 48.7826 36.5808 2.1614 -6.7591 -19.9341
# 2 48.7826 98.1928 12.9300 -12.9778 -2.4904 -4.7355
# 3 36.5808 12.9300 64.9231 -18.9615 -5.0246 6.9223
# 4 2.1614 -12.9778 -18.9615 27.9934 1.4675 -5.5012
# 5 -6.7591 -2.4904 -5.0246 1.4675 17.6147 -5.4815
# 6 -19.9341 -4.7355 6.9223 -5.5012 -5.4815 36.2238
#
#
#
# Elastic Compliance Matrix: (Units=1/GPa)
#
#
# Indices 1 2 3 4 5 6 
#
# 1 0.016020 -0.007305 -0.011250 -0.010725 0.005674 0.009240
# 2 -0.007305 0.014464 0.004216 0.009863 -0.000865 -0.001568
# 3 -0.011250 0.004216 0.027570 0.019949 0.000032 -0.007874
# 4 -0.010725 0.009863 0.019949 0.054650 -0.001703 -0.000383
# 5 0.005674 -0.000865 0.000032 -0.001703 0.062787 0.012246
# 6 0.009240 -0.001568 -0.007874 -0.000383 0.012246 0.035786
#
#
# Mechanical properties :
#
#
# Convention : Reuss Voigt Hill
#
# Bulk Modulus (GPa) = 34.04120 53.93338 43.98729
# Shear Modulus (GPa) = 20.02028 29.06773 24.54400
#
# Velocity S-wave (km/s) = 3.18340 3.83586 3.52476
# Velocity P-wave (km/s) = 5.54467 6.84974 6.23147
#
# Compressibility (1/GPa) = 0.02937617
#
# Stress axis : x y z
#
# Youngs Moduli (GPa) = 62.42352 69.13673 36.27104
#
# Poissons Ratio (x) = 0.50506 0.40804
# Poissons Ratio (y) = 0.45602 -0.15293
# Poissons Ratio (z) = 0.70226 -0.29150
#
# Static dielectric constant tensor:
#      x y z
#    x 1.679120 0.027220 -0.023890 
#    y 0.027220 1.737170 -0.029390 
#    z -0.023890 -0.029390 1.706940 
# 
# From -- ./inp_files/319406.got.cif
#   From: 2010.05.17/outbox.cif.g08.bks.cpg/sg2_160_cif.got.tgz:319406.got - 2010.06.03 11:33:40.
