data_PCOD9011395
_publ_section_title
;
Structure prediction by ZEFSAII (Michael W. Deem and Ramdas Pophale) SiO2 
 PCOD9011395
Probable space group: P -1
;
_chemical_formula_sum "Si O2"
_cell_formula_units_Z 15
_cell_length_a 9.174934
_cell_length_b 8.945733
_cell_length_c 11.470220
_cell_angle_alpha 43.339967
_cell_angle_beta 88.234721
_cell_angle_gamma 89.941042
_cell_volume 645.511363
_symmetry_space_group_name_H-M "P -1"
_symmetry_group_IT_number 2
_symmetry_cell_setting 'triclinic'
loop_
_space_group_symop_operation_xyz
x,y,z
-x,-y,-z
loop_
_atom_site_type_symbol
_atom_site_label
_atom_site_fract_x
_atom_site_fract_y
_atom_site_fract_z
Si Si1 0.316507 0.268127 0.084887
Si Si2 0.000000 0.000000 0.500000
Si Si3 0.102170 0.456009 0.132806
Si Si4 0.402327 0.267309 0.457712
Si Si5 0.417675 0.702686 0.107412
Si Si6 0.694758 0.092272 0.517809
Si Si7 0.342726 0.169719 0.781561
Si Si8 0.917352 0.779789 0.087174
O O1 0.259011 0.458578 0.062062
O O2 0.342869 0.060751 0.283518
O O3 0.459591 0.332660 0.973266
O O4 0.189538 0.199892 0.034216
O O5 0.136226 0.846614 0.535762
O O6 0.923396 0.791772 0.685025
O O7 0.040843 0.614084 0.142164
O O8 0.000000 0.500000 0.000000
O O9 0.338220 0.480630 0.279068
O O10 0.576653 0.278540 0.424379
O O11 0.365257 0.239898 0.608669
O O12 0.342853 0.052588 0.514002
O O13 0.512009 0.773037 0.180241
O O14 0.326639 0.907306 0.950172
O O15 0.199513 0.277610 0.776214
O O16 0.000000 0.000000 0.000000
#
# Coordination Sequence:
#
# PCOD9011395 Si02
#       8
#     2   1   2   2   2   2   2   2
#     4   9  19  41  66  91 127 166 215 265 323 377
#     4  10  22  40  64  86 128 164 208 266 318 374
#     4   9  20  38  63  94 120 169 211 259 317 386
#     4  11  23  40  62  95 128 162 218 262 315 377
#     4  10  21  40  66  88 124 170 207 263 322 377
#     4  10  23  40  61  96 126 161 217 268 315 380
#     4  10  22  40  61  93 126 167 212 258 317 392
#     4  10  22  40  65  99 130 171 217 261 324 398
#
# _framework density 23.237390999999999
#
# number of rings (size 3 to 8) (size 9 to 14) (size 15 to 20)
#    0.000    2.133    1.333    0.400    5.600    5.867 
#    2.400    0.000    0.000   11.200    0.000    0.000 
#    0.000    0.000    0.000    0.000    0.000    0.000 
#
# Total GULP energy -83565.598125 kJ/mol
# GULP energy per Si atom -5571.039875 kJ/mol
# Density = 2.318450 g / cm^3
# Si number density = 23.237391 Si / 1000 Ang^3
#
#
#
# Elastic Constant Matrix: (Units=GPa)
#
#
# Indices 1 2 3 4 5 6 
#
# 1 86.7521 38.9862 32.1089 11.6254 4.8305 -15.1785
# 2 38.9862 125.2693 52.9516 14.7083 -4.1719 -25.7387
# 3 32.1089 52.9516 88.5346 17.2271 -6.5024 -10.6877
# 4 11.6254 14.7083 17.2271 47.3404 -6.8358 -0.6039
# 5 4.8305 -4.1719 -6.5024 -6.8358 25.6897 -6.5679
# 6 -15.1785 -25.7387 -10.6877 -0.6039 -6.5679 37.3642
#
#
#
# Elastic Compliance Matrix: (Units=1/GPa)
#
#
# Indices 1 2 3 4 5 6 
#
# 1 0.014907 -0.002526 -0.003456 -0.002163 -0.004002 0.002589
# 2 -0.002526 0.012616 -0.005486 -0.000847 0.002581 0.006535
# 3 -0.003456 -0.005486 0.016669 -0.003051 0.003191 0.000096
# 4 -0.002163 -0.000847 -0.003051 0.023823 0.005589 -0.000967
# 5 -0.004002 0.002581 0.003191 0.005589 0.044696 0.009012
# 6 0.002589 0.006535 0.000096 -0.000967 0.009012 0.033913
#
#
# Mechanical properties :
#
#
# Convention : Reuss Voigt Hill
#
# Bulk Modulus (GPa) = 47.04547 60.96104 54.00325
# Shear Modulus (GPa) = 28.30506 33.84614 31.07560
#
# Velocity S-wave (km/s) = 3.49389 3.82060 3.66089
# Velocity P-wave (km/s) = 6.04697 6.76414 6.41559
#
# Compressibility (1/GPa) = 0.02125603
#
# Stress axis : x y z
#
# Youngs Moduli (GPa) = 67.08237 79.26370 59.99031
#
# Poissons Ratio (x) = 0.20020 0.20734
# Poissons Ratio (y) = 0.16944 0.32912
# Poissons Ratio (z) = 0.23185 0.43486
#
# Static dielectric constant tensor:
#      x y z
#    x 1.932070 0.071360 -0.009670 
#    y 0.071360 1.890250 -0.014290 
#    z -0.009670 -0.014290 1.793010 
# 
# From -- ./inp_files/416089.got.cif
#   From: 2010.05.17/outbox.cif.g08.bks.cpg/sg2_209_cif.got.tgz:416089.got - 2010.06.03 11:33:40.
