data_PCOD9011763
_publ_section_title
;
Structure prediction by ZEFSAII (Michael W. Deem and Ramdas Pophale) SiO2 
 PCOD9011763
Probable space group: P -1
;
_chemical_formula_sum "Si O2"
_cell_formula_units_Z 12
_cell_length_a 16.226760
_cell_length_b 9.389563
_cell_length_c 14.040357
_cell_angle_alpha 147.417398
_cell_angle_beta 153.176599
_cell_angle_gamma 42.297026
_cell_volume 519.166783
_symmetry_space_group_name_H-M "P -1"
_symmetry_group_IT_number 2
_symmetry_cell_setting 'triclinic'
loop_
_space_group_symop_operation_xyz
x,y,z
-x,-y,-z
loop_
_atom_site_type_symbol
_atom_site_label
_atom_site_fract_x
_atom_site_fract_y
_atom_site_fract_z
Si Si1 0.549075 0.104096 0.713661
Si Si2 0.240849 0.819768 0.580378
Si Si3 0.448703 0.134002 0.228203
Si Si4 0.823970 0.660182 0.067860
Si Si5 0.709563 0.434988 0.318919
Si Si6 0.916186 0.268802 0.101504
O O1 0.519488 0.877900 0.634076
O O2 0.418435 0.345667 0.730036
O O3 0.759976 0.206610 0.982238
O O4 0.500000 0.000000 0.500000
O O5 0.311876 0.614131 0.616499
O O6 0.032346 0.731940 0.291409
O O7 0.372212 0.851287 0.644121
O O8 0.079987 0.464913 0.418699
O O9 0.345452 0.846505 0.941477
O O10 0.311740 0.343375 0.163326
O O11 0.765502 0.901098 0.212206
O O12 0.829256 0.408011 0.998913
O O13 0.000000 0.000000 0.000000
#
# Coordination Sequence:
#
# PCOD9011763 Si02
#       6
#     2   2   2   2   2   2
#     4  12  25  41  60  88 130 170 203 248 317 363
#     4   9  18  37  65  95 125 152 198 264 311 359
#     4  11  22  38  66  98 121 154 211 264 297 364
#     4   9  19  37  64  94 121 161 204 249 312 363
#     4  10  21  40  67  92 120 162 205 251 311 366
#     4  11  22  41  64  83 129 172 197 247 308 372
#
# _framework density 23.113958
#
# number of rings (size 3 to 8) (size 9 to 14) (size 15 to 20)
#    0.000    1.667    1.667    5.500    0.000    2.000 
#    0.000    4.167    0.000    0.000    0.000    0.000 
#    0.000    0.000    0.000    0.000    0.000    0.000 
#
# Total GULP energy -67195.566919 kJ/mol
# GULP energy per Si atom -5599.630577 kJ/mol
# Density = 2.306135 g / cm^3
# Si number density = 23.113958 Si / 1000 Ang^3
#
#
#
# Elastic Constant Matrix: (Units=GPa)
#
#
# Indices 1 2 3 4 5 6 
#
# 1 114.4416 44.2436 67.5067 -21.5256 21.9065 40.4422
# 2 44.2436 155.9282 20.7196 -15.0859 8.3260 29.5803
# 3 67.5067 20.7196 99.4587 -2.0828 30.6538 2.4928
# 4 -21.5256 -15.0859 -2.0828 32.8951 -4.3155 0.7213
# 5 21.9065 8.3260 30.6538 -4.3155 36.5151 8.7404
# 6 40.4422 29.5803 2.4928 0.7213 8.7404 28.0796
#
#
#
# Elastic Compliance Matrix: (Units=1/GPa)
#
#
# Indices 1 2 3 4 5 6 
#
# 1 -0.097741 -0.021183 0.082266 -0.079800 -0.057055 0.175595
# 2 -0.021183 0.004381 0.015387 -0.012715 -0.009357 0.027768
# 3 0.082266 0.015387 -0.054824 0.065123 0.034938 -0.142376
# 4 -0.079800 -0.012715 0.065123 -0.031776 -0.040173 0.135868
# 5 -0.057055 -0.009357 0.034938 -0.040173 0.008793 0.087226
# 6 0.175595 0.027768 -0.142376 0.135868 0.087226 -0.264545
#
#
# Mechanical properties :
#
#
# Convention : Reuss Voigt Hill
#
# Bulk Modulus (GPa) = 210.27536 70.52982 140.40259
# Shear Modulus (GPa) = -8.51691 35.32187 13.40248
#
# Velocity S-wave (km/s) = -1.92165 3.91341 2.41061
# Velocity P-wave (km/s) = 9.28693 7.14142 8.28393
#
# Compressibility (1/GPa) = 0.00475567
#
# Stress axis : x y z
#
# Youngs Moduli (GPa) = -10.23113 228.25354 -18.24007
#
# Poissons Ratio (x) = 4.83517 1.50054
# Poissons Ratio (y) = -0.21673 0.28066
# Poissons Ratio (z) = 0.84168 -3.51211
#
# Static dielectric constant tensor:
#      x y z
#    x 1.844790 0.007760 -0.043180 
#    y 0.007760 1.873910 -0.003010 
#    z -0.043180 -0.003010 1.903340 
# 
# From -- ./inp_files/527984.got.cif
#   From: 2010.05.17/outbox.cif.g08.bks.cpg/sg2_264_cif.got.tgz:527984.got - 2010.06.03 11:33:40.
