data_PCOD9011526
_publ_section_title
;
Structure prediction by ZEFSAII (Michael W. Deem and Ramdas Pophale) SiO2 
 PCOD9011526
Probable space group: P -1
;
_chemical_formula_sum "Si O2"
_cell_formula_units_Z 13
_cell_length_a 5.527110
_cell_length_b 26.799871
_cell_length_c 23.306475
_cell_angle_alpha 171.109642
_cell_angle_beta 111.150991
_cell_angle_gamma 70.196020
_cell_volume 493.827391
_symmetry_space_group_name_H-M "P -1"
_symmetry_group_IT_number 2
_symmetry_cell_setting 'triclinic'
loop_
_space_group_symop_operation_xyz
x,y,z
-x,-y,-z
loop_
_atom_site_type_symbol
_atom_site_label
_atom_site_fract_x
_atom_site_fract_y
_atom_site_fract_z
Si Si1 0.822685 0.128278 0.337724
Si Si2 0.500000 0.500000 0.000000
Si Si3 0.374353 0.076109 0.315793
Si Si4 0.270598 0.648858 0.543675
Si Si5 0.152757 0.438955 0.501342
Si Si6 0.766367 0.101766 0.473797
Si Si7 0.082696 0.729316 0.156337
O O1 0.759845 0.175299 0.319217
O O2 0.596708 0.268225 0.513484
O O3 0.127839 0.252222 0.513421
O O4 0.793108 0.744793 0.916730
O O5 0.350753 0.736437 0.297262
O O6 0.378087 0.663943 0.117700
O O7 0.526846 0.961819 0.253803
O O8 0.249260 0.782045 0.930746
O O9 0.574044 0.696876 0.642421
O O10 0.053302 0.734998 0.668042
O O11 0.000000 0.500000 0.500000
O O12 0.980912 0.871177 0.249594
O O13 0.927104 0.389416 0.777923
O O14 0.000000 0.000000 0.500000
#
# Coordination Sequence:
#
# PCOD9011526 Si02
#       7
#     2   1   2   2   2   2   2
#     4  10  22  42  66  92 138 173 228 282 344 405
#     4  10  22  44  68  98 130 180 218 284 348 414
#     4  10  24  44  65 103 137 184 231 291 346 416
#     4  10  21  40  66  94 129 178 228 283 342 408
#     4  10  21  42  68 100 139 184 233 288 346 411
#     4  11  25  41  68  99 138 177 232 286 350 420
#     4  10  23  43  67  99 134 173 228 282 347 424
#
# _framework density 26.324985999999999
#
# number of rings (size 3 to 8) (size 9 to 14) (size 15 to 20)
#    0.000    1.846    0.000    3.231    2.154   10.462 
#    0.000   18.462    0.000    0.000    0.000    0.000 
#    0.000    0.000    0.000    0.000    0.000    0.000 
#
# Total GULP energy -72526.348175 kJ/mol
# GULP energy per Si atom -5578.949860 kJ/mol
# Density = 2.626507 g / cm^3
# Si number density = 26.324986 Si / 1000 Ang^3
#
#
#
# Elastic Constant Matrix: (Units=GPa)
#
#
# Indices 1 2 3 4 5 6 
#
# 1 202.5031 70.6911 28.1972 16.4712 -25.1020 -12.3723
# 2 70.6911 215.5423 43.5550 29.3190 -7.8972 -34.0966
# 3 28.1972 43.5550 101.4821 16.9095 -12.4693 -14.3751
# 4 16.4712 29.3190 16.9095 33.2428 -8.2563 -14.8204
# 5 -25.1020 -7.8972 -12.4693 -8.2563 41.2906 10.5708
# 6 -12.3723 -34.0966 -14.3751 -14.8204 10.5708 59.4388
#
#
#
# Elastic Compliance Matrix: (Units=1/GPa)
#
#
# Indices 1 2 3 4 5 6 
#
# 1 0.006039 -0.001770 -0.000502 -0.000652 0.003208 -0.000613
# 2 -0.001770 0.006281 -0.001528 -0.003235 -0.001582 0.002340
# 3 -0.000502 -0.001528 0.011569 -0.003525 0.002044 0.000575
# 4 -0.000652 -0.003235 -0.003525 0.038791 0.004116 0.006096
# 5 0.003208 -0.001582 0.002044 0.004116 0.028265 -0.003746
# 6 -0.000613 0.002340 0.000575 0.006096 -0.003746 0.020364
#
#
# Mechanical properties :
#
#
# Convention : Reuss Voigt Hill
#
# Bulk Modulus (GPa) = 61.39056 89.37934 75.38495
# Shear Modulus (GPa) = 40.21253 51.93339 46.07296
#
# Velocity S-wave (km/s) = 3.91262 4.44642 4.18803
# Velocity P-wave (km/s) = 6.61682 7.77090 7.21696
#
# Compressibility (1/GPa) = 0.01628915
#
# Stress axis : x y z
#
# Youngs Moduli (GPa) = 165.58452 159.21369 86.43696
#
# Poissons Ratio (x) = 0.28178 0.04343
# Poissons Ratio (y) = 0.29306 0.13206
# Poissons Ratio (z) = 0.08319 0.24325
#
# Static dielectric constant tensor:
#      x y z
#    x 2.109100 -0.004390 0.022980 
#    y -0.004390 2.057760 -0.095020 
#    z 0.022980 -0.095020 2.181240 
# 
# From -- ./inp_files/605269.got.cif
#   From: 2010.05.17/outbox.cif.g08.bks.cpg/sg2_303_cif.got.tgz:605269.got - 2010.06.03 11:33:40.
