data_PCOD9011884
_publ_section_title
;
Structure prediction by ZEFSAII (Michael W. Deem and Ramdas Pophale) SiO2 
 PCOD9011884
Probable space group: P -1
;
_chemical_formula_sum "Si O2"
_cell_formula_units_Z 12
_cell_length_a 14.912862
_cell_length_b 12.215995
_cell_length_c 9.069887
_cell_angle_alpha 125.919552
_cell_angle_beta 141.625355
_cell_angle_gamma 28.651042
_cell_volume 462.448996
_symmetry_space_group_name_H-M "P -1"
_symmetry_group_IT_number 2
_symmetry_cell_setting 'triclinic'
loop_
_space_group_symop_operation_xyz
x,y,z
-x,-y,-z
loop_
_atom_site_type_symbol
_atom_site_label
_atom_site_fract_x
_atom_site_fract_y
_atom_site_fract_z
Si Si1 0.782657 0.959499 0.396943
Si Si2 0.469510 0.373724 0.532366
Si Si3 0.998257 0.618930 0.967973
Si Si4 0.770111 0.237300 0.291010
Si Si5 0.320246 0.257945 0.825304
Si Si6 0.536188 0.177862 0.761883
O O1 0.711299 0.878344 0.325851
O O2 0.082248 0.750141 0.582503
O O3 0.687411 0.161461 0.529468
O O4 0.605929 0.078067 0.115861
O O5 0.198381 0.572957 0.254797
O O6 0.464181 0.523058 0.722167
O O7 0.475651 0.257486 0.578481
O O8 0.127735 0.463327 0.863050
O O9 0.000000 0.500000 0.000000
O O10 0.728892 0.900725 0.809518
O O11 0.677436 0.201897 0.025778
O O12 0.000000 0.000000 0.500000
O O13 0.306583 0.327368 0.699688
#
# Coordination Sequence:
#
# PCOD9011884 Si02
#       6
#     2   2   2   2   2   2
#     4  10  22  41  67  95 130 172 215 265 324 385
#     4  11  25  42  67  97 133 169 218 270 321 385
#     4  11  23  42  67  96 133 173 214 264 323 384
#     4  12  23  43  68  94 130 174 218 267 324 383
#     4  10  21  40  67  97 129 170 216 263 324 386
#     4  12  25  43  67 100 131 171 217 268 324 383
#
# _framework density 25.948806000000001
#
# number of rings (size 3 to 8) (size 9 to 14) (size 15 to 20)
#    0.000    1.000    3.333    4.500    0.000    6.667 
#    0.000    2.500    0.000    0.000    0.000    0.000 
#    0.000    0.000    0.000    0.000    0.000    0.000 
#
# Total GULP energy -67295.874816 kJ/mol
# GULP energy per Si atom -5607.989568 kJ/mol
# Density = 2.588974 g / cm^3
# Si number density = 25.948806 Si / 1000 Ang^3
#
#
#
# Elastic Constant Matrix: (Units=GPa)
#
#
# Indices 1 2 3 4 5 6 
#
# 1 100.7787 11.9838 11.3131 -6.6004 -12.7738 0.2872
# 2 11.9838 122.1167 19.7523 15.9203 -13.6105 -6.6013
# 3 11.3131 19.7523 110.6411 -4.1884 6.4131 -1.4867
# 4 -6.6004 15.9203 -4.1884 33.8321 12.0965 -10.0721
# 5 -12.7738 -13.6105 6.4131 12.0965 36.6403 -0.8271
# 6 0.2872 -6.6013 -1.4867 -10.0721 -0.8271 44.6682
#
#
#
# Elastic Compliance Matrix: (Units=1/GPa)
#
#
# Indices 1 2 3 4 5 6 
#
# 1 0.010613 -0.000625 -0.001124 0.001072 0.003313 0.000105
# 2 -0.000625 0.010387 -0.002469 -0.007731 0.006621 -0.000164
# 3 -0.001124 -0.002469 0.010007 0.003974 -0.004355 0.000791
# 4 0.001072 -0.007731 0.003974 0.042433 -0.017017 0.008236
# 5 0.003313 0.006621 -0.004355 -0.017017 0.037234 -0.002335
# 6 0.000105 -0.000164 0.000791 0.008236 -0.002335 0.024203
#
#
# Mechanical properties :
#
#
# Convention : Reuss Voigt Hill
#
# Bulk Modulus (GPa) = 44.30214 46.62610 45.46412
# Shear Modulus (GPa) = 33.14866 42.39394 37.77130
#
# Velocity S-wave (km/s) = 3.57804 4.04636 3.81938
# Velocity P-wave (km/s) = 5.84635 6.31175 6.08350
#
# Compressibility (1/GPa) = 0.02257227
#
# Stress axis : x y z
#
# Youngs Moduli (GPa) = 94.22406 96.27788 99.92603
#
# Poissons Ratio (x) = 0.06013 0.11229
# Poissons Ratio (y) = 0.05885 0.24673
# Poissons Ratio (z) = 0.10588 0.23772
#
# Static dielectric constant tensor:
#      x y z
#    x 2.044100 0.033440 0.016500 
#    y 0.033440 2.043800 -0.009020 
#    z 0.016500 -0.009020 1.982720 
# 
# From -- ./inp_files/245798.got.cif
#   From: 2010.05.17/outbox.cif.g08.bks.cpg/sg2_123_cif.got.tgz:245798.got - 2010.06.03 11:33:40.
