data_PCOD9011621
_publ_section_title
;
Structure prediction by ZEFSAII (Michael W. Deem and Ramdas Pophale) SiO2 
 PCOD9011621
Probable space group: P -1
;
_chemical_formula_sum "Si O2"
_cell_formula_units_Z 8
_cell_length_a 8.265735
_cell_length_b 5.613372
_cell_length_c 7.737173
_cell_angle_alpha 65.792856
_cell_angle_beta 88.407363
_cell_angle_gamma 98.936641
_cell_volume 321.781029
_symmetry_space_group_name_H-M "P -1"
_symmetry_group_IT_number 2
_symmetry_cell_setting 'triclinic'
loop_
_space_group_symop_operation_xyz
x,y,z
-x,-y,-z
loop_
_atom_site_type_symbol
_atom_site_label
_atom_site_fract_x
_atom_site_fract_y
_atom_site_fract_z
Si Si1 0.280722 0.535931 0.074164
Si Si2 0.039897 0.838108 0.863958
Si Si3 0.470229 0.706079 0.670129
Si Si4 0.123221 0.466216 0.657935
O O1 0.373582 0.438182 0.262191
O O2 0.155694 0.275471 0.083590
O O3 0.149755 0.730274 0.041472
O O4 0.404318 0.683992 0.879798
O O5 0.090908 0.689073 0.735098
O O6 0.089577 0.148192 0.769567
O O7 0.320919 0.541123 0.615382
O O8 0.500000 0.000000 0.500000
O O9 0.000000 0.500000 0.500000
#
# Coordination Sequence:
#
# PCOD9011621 Si02
#       4
#     2   2   2   2
#     4   9  21  41  66  95 129 169 214 265 319 377
#     4  10  22  42  67  92 127 171 214 264 318 375
#     4  10  21  40  66  97 132 169 212 264 321 381
#     4  11  23  41  67  97 129 169 216 264 317 380
#
# _framework density 24.861630000000002
#
# number of rings (size 3 to 8) (size 9 to 14) (size 15 to 20)
#    0.000    2.000    0.000    2.250    0.000   12.000 
#    0.000   20.000    0.000    0.000    0.000    0.000 
#    0.000    0.000    0.000    0.000    0.000    0.000 
#
# Total GULP energy -44589.142603 kJ/mol
# GULP energy per Si atom -5573.642825 kJ/mol
# Density = 2.480504 g / cm^3
# Si number density = 24.861630 Si / 1000 Ang^3
#
#
#
# Elastic Constant Matrix: (Units=GPa)
#
#
# Indices 1 2 3 4 5 6 
#
# 1 148.9172 85.3777 97.4840 -7.6447 55.1026 27.4187
# 2 85.3777 201.9494 110.1112 -36.7642 16.4595 -3.3481
# 3 97.4840 110.1112 175.9283 -32.5735 50.5038 12.4534
# 4 -7.6447 -36.7642 -32.5735 64.1982 0.5190 -13.3353
# 5 55.1026 16.4595 50.5038 0.5190 59.6357 3.5487
# 6 27.4187 -3.3481 12.4534 -13.3353 3.5487 32.2443
#
#
#
# Elastic Compliance Matrix: (Units=1/GPa)
#
#
# Indices 1 2 3 4 5 6 
#
# 1 0.021850 -0.008223 -0.002868 -0.007579 -0.014241 -0.019893
# 2 -0.008223 0.011537 -0.004618 0.005603 0.007594 0.011455
# 3 -0.002868 -0.004618 0.012845 0.003416 -0.006934 -0.000826
# 4 -0.007579 0.005603 0.003416 0.022706 0.001478 0.014935
# 5 -0.014241 0.007594 -0.006934 0.001478 0.032944 0.012562
# 6 -0.019893 0.011455 -0.000826 0.014935 0.012562 0.054232
#
#
# Mechanical properties :
#
#
# Convention : Reuss Voigt Hill
#
# Bulk Modulus (GPa) = 67.49865 123.63786 95.56826
# Shear Modulus (GPa) = 25.97817 46.80378 36.39098
#
# Velocity S-wave (km/s) = 3.23601 4.34357 3.83004
# Velocity P-wave (km/s) = 6.41647 8.65990 7.62118
#
# Compressibility (1/GPa) = 0.01481511
#
# Stress axis : x y z
#
# Youngs Moduli (GPa) = 45.76668 86.67850 77.85061
#
# Poissons Ratio (x) = 0.71274 0.22325
# Poissons Ratio (y) = 0.37633 0.35951
# Poissons Ratio (z) = 0.13124 0.40028
#
# Static dielectric constant tensor:
#      x y z
#    x 2.149920 -0.017370 -0.167470 
#    y -0.017370 1.900360 0.054910 
#    z -0.167470 0.054910 2.182740 
# 
# From -- ./inp_files/16339.got.cif
#   From: 2010.05.17/outbox.cif.g08.bks.cpg/sg2_9_cif.got.tgz:16339.got - 2010.06.03 11:33:40.
