data_PCOD9011058
_publ_section_title
;
Structure prediction by ZEFSAII (Michael W. Deem and Ramdas Pophale) SiO2 
 PCOD9011058
Probable space group: P -1
;
_chemical_formula_sum "Si O2"
_cell_formula_units_Z 14
_cell_length_a 16.279297
_cell_length_b 14.777478
_cell_length_c 7.072120
_cell_angle_alpha 58.169483
_cell_angle_beta 85.713562
_cell_angle_gamma 133.671124
_cell_volume 731.761799
_symmetry_space_group_name_H-M "P -1"
_symmetry_group_IT_number 2
_symmetry_cell_setting 'triclinic'
loop_
_space_group_symop_operation_xyz
x,y,z
-x,-y,-z
loop_
_atom_site_type_symbol
_atom_site_label
_atom_site_fract_x
_atom_site_fract_y
_atom_site_fract_z
Si Si1 0.992912 0.112482 0.796276
Si Si2 0.378710 0.026070 0.499902
Si Si3 0.654955 0.414078 0.802204
Si Si4 0.171026 0.138336 0.261730
Si Si5 0.461155 0.567884 0.538941
Si Si6 0.225864 0.037569 0.696419
Si Si7 0.478814 0.950823 0.841192
O O1 0.870883 0.977868 0.789157
O O2 0.927109 0.112074 0.977317
O O3 0.171674 0.345034 0.445697
O O4 0.000000 0.000000 0.000000
O O5 0.231296 0.930829 0.706225
O O6 0.370975 0.943901 0.403372
O O7 0.440328 0.013854 0.662254
O O8 0.520613 0.268012 0.151559
O O9 0.307060 0.373040 0.914101
O O10 0.586812 0.399936 0.647251
O O11 0.660844 0.294183 0.890717
O O12 0.229830 0.133346 0.431445
O O13 0.000000 0.000000 0.500000
O O14 0.500000 0.500000 0.500000
O O15 0.616210 0.776242 0.402856
O O16 0.500000 0.000000 0.000000
#
# Coordination Sequence:
#
# PCOD9011058 Si02
#       7
#     2   2   2   2   2   2   2
#     4  12  23  43  56  88 137 169 203 247 308 377
#     4   9  22  38  65  95 113 154 215 261 307 366
#     4  10  21  40  65  89 123 168 203 249 324 365
#     4  12  25  38  58  83 127 175 207 246 299 365
#     4  12  22  37  60  90 125 167 209 257 302 357
#     4  12  24  39  61  91 126 164 218 259 298 364
#     4   9  19  41  67  93 122 151 207 268 320 364
#
# _framework density 19.131907999999999
#
# number of rings (size 3 to 8) (size 9 to 14) (size 15 to 20)
#    0.857    0.286    4.286    2.143    2.000    0.000 
#    2.571    0.714    0.000    1.714    0.000    0.000 
#    0.000    0.000    0.000    0.000    0.000    0.000 
#
# Total GULP energy -78091.577089 kJ/mol
# GULP energy per Si atom -5577.969792 kJ/mol
# Density = 1.908836 g / cm^3
# Si number density = 19.131908 Si / 1000 Ang^3
#
#
#
# Elastic Constant Matrix: (Units=GPa)
#
#
# Indices 1 2 3 4 5 6 
#
# 1 82.9924 -3.3784 31.5110 5.3508 -10.4963 -12.2236
# 2 -3.3784 33.9573 -1.0840 13.3788 3.2821 7.4902
# 3 31.5110 -1.0840 88.1039 13.3021 4.6263 -2.6021
# 4 5.3508 13.3788 13.3021 33.6391 -4.7296 -6.8595
# 5 -10.4963 3.2821 4.6263 -4.7296 38.6458 13.6178
# 6 -12.2236 7.4902 -2.6021 -6.8595 13.6178 31.0440
#
#
#
# Elastic Compliance Matrix: (Units=1/GPa)
#
#
# Indices 1 2 3 4 5 6 
#
# 1 0.015194 -0.000560 -0.005713 0.001458 0.003473 0.004438
# 2 -0.000560 0.040729 0.003490 -0.020493 -0.001779 -0.013503
# 3 -0.005713 0.003490 0.014672 -0.007182 -0.003866 -0.001753
# 4 0.001458 -0.020493 -0.007182 0.043649 0.003793 0.012897
# 5 0.003473 -0.001779 -0.003866 0.003793 0.032035 -0.011742
# 6 0.004438 -0.013503 -0.001753 0.012897 -0.011742 0.045071
#
#
# Mechanical properties :
#
#
# Convention : Reuss Voigt Hill
#
# Bulk Modulus (GPa) = 15.37738 28.79453 22.08595
# Shear Modulus (GPa) = 22.87368 32.53277 27.70323
#
# Velocity S-wave (km/s) = 3.46146 4.12812 3.80940
# Velocity P-wave (km/s) = 4.90211 6.14858 5.56038
#
# Compressibility (1/GPa) = 0.06503060
#
# Stress axis : x y z
#
# Youngs Moduli (GPa) = 65.81378 24.55261 68.15728
#
# Poissons Ratio (x) = 0.01374 0.38936
# Poissons Ratio (y) = 0.03683 -0.23787
# Poissons Ratio (z) = 0.37597 -0.08569
#
# Static dielectric constant tensor:
#      x y z
#    x 1.669930 -0.033610 -0.030470 
#    y -0.033610 1.674670 0.019640 
#    z -0.030470 0.019640 1.672570 
# 
# From -- ./inp_files/95750.got.cif
#   From: 2010.05.17/outbox.cif.g08.bks.cpg/sg2_48_cif.got.tgz:95750.got - 2010.06.03 11:33:40.
