data_PCOD9011449
_publ_section_title
;
Structure prediction by ZEFSAII (Michael W. Deem and Ramdas Pophale) SiO2 
 PCOD9011449
Probable space group: P -1
;
_chemical_formula_sum "Si O2"
_cell_formula_units_Z 12
_cell_length_a 7.911650
_cell_length_b 5.666085
_cell_length_c 16.530247
_cell_angle_alpha 110.901590
_cell_angle_beta 44.634512
_cell_angle_gamma 97.802287
_cell_volume 478.425767
_symmetry_space_group_name_H-M "P -1"
_symmetry_group_IT_number 2
_symmetry_cell_setting 'triclinic'
loop_
_space_group_symop_operation_xyz
x,y,z
-x,-y,-z
loop_
_atom_site_type_symbol
_atom_site_label
_atom_site_fract_x
_atom_site_fract_y
_atom_site_fract_z
Si Si1 0.174448 0.196591 0.688807
Si Si2 0.262858 0.371606 0.079640
Si Si3 0.096102 0.223078 0.291736
Si Si4 0.586174 0.604098 0.239671
Si Si5 0.382623 0.990085 0.851983
Si Si6 0.021627 0.730904 0.415606
O O1 0.413005 0.266846 0.656151
O O2 0.968817 0.405357 0.829061
O O3 0.121902 0.225691 0.615318
O O4 0.109459 0.920797 0.692494
O O5 0.232844 0.293532 0.172722
O O6 0.500000 0.500000 0.000000
O O7 0.277399 0.129184 0.986795
O O8 0.956462 0.451291 0.424020
O O9 0.318732 0.056390 0.245677
O O10 0.695635 0.799766 0.166437
O O11 0.312351 0.631496 0.303516
O O12 0.679455 0.295355 0.171976
O O13 0.000000 0.000000 0.500000
#
# Coordination Sequence:
#
# PCOD9011449 Si02
#       6
#     2   2   2   2   2   2
#     4  11  24  41  64  96 131 170 215 275 326 380
#     4  11  21  37  66  96 131 180 223 256 319 385
#     4  10  21  40  66  91 132 170 218 272 325 381
#     4  11  26  43  65  99 137 166 222 271 322 389
#     4  11  22  42  63  95 137 178 214 264 316 391
#     4  10  23  46  69  92 125 172 218 274 337 395
#
# _framework density 25.082263000000001
#
# number of rings (size 3 to 8) (size 9 to 14) (size 15 to 20)
#    0.000    1.333    3.333    2.500    7.000    2.667 
#    0.000    0.833    0.000    0.000    0.000    0.000 
#    0.000    0.000    0.000    0.000    0.000    0.000 
#
# Total GULP energy -66927.758049 kJ/mol
# GULP energy per Si atom -5577.313171 kJ/mol
# Density = 2.502518 g / cm^3
# Si number density = 25.082263 Si / 1000 Ang^3
#
#
#
# Elastic Constant Matrix: (Units=GPa)
#
#
# Indices 1 2 3 4 5 6 
#
# 1 119.0864 45.2009 27.5855 10.5220 47.0815 14.4932
# 2 45.2009 151.5770 51.5086 43.7523 19.5568 15.9890
# 3 27.5855 51.5086 89.2008 45.1484 32.4653 11.1621
# 4 10.5220 43.7523 45.1484 54.2905 18.3434 13.9475
# 5 47.0815 19.5568 32.4653 18.3434 40.5055 16.1321
# 6 14.4932 15.9890 11.1621 13.9475 16.1321 34.6239
#
#
#
# Elastic Compliance Matrix: (Units=1/GPa)
#
#
# Indices 1 2 3 4 5 6 
#
# 1 0.019256 -0.005579 0.003472 0.005975 -0.026508 0.003340
# 2 -0.005579 0.010630 -0.003917 -0.006397 0.008453 -0.002672
# 3 0.003472 -0.003917 0.025590 -0.014107 -0.018891 0.006590
# 4 0.005975 -0.006397 -0.014107 0.038380 -0.007077 -0.007162
# 5 -0.026508 0.008453 -0.018891 -0.007077 0.077770 -0.020102
# 6 0.003340 -0.002672 0.006590 -0.007162 -0.020102 0.038844
#
#
# Mechanical properties :
#
#
# Convention : Reuss Voigt Hill
#
# Bulk Modulus (GPa) = 23.02658 67.60602 45.31630
# Shear Modulus (GPa) = 21.09761 41.58860 31.34310
#
# Velocity S-wave (km/s) = 2.90338 4.07638 3.53882
# Velocity P-wave (km/s) = 4.52105 7.01199 5.89949
#
# Compressibility (1/GPa) = 0.04342808
#
# Stress axis : x y z
#
# Youngs Moduli (GPa) = 51.93167 94.07405 39.07778
#
# Poissons Ratio (x) = 0.52484 -0.13569
# Poissons Ratio (y) = 0.28973 0.15307
# Poissons Ratio (z) = -0.18032 0.36850
#
# Static dielectric constant tensor:
#      x y z
#    x 2.073870 -0.055340 -0.001400 
#    y -0.055340 2.183650 0.013320 
#    z -0.001400 0.013320 1.998840 
# 
# From -- ./inp_files/100604.got.cif
#   From: 2010.05.17/outbox.cif.g08.bks.cpg/sg2_51_cif.got.tgz:100604.got - 2010.06.03 11:33:40.
