data_PCOD9011348
_publ_section_title
;
Structure prediction by ZEFSAII (Michael W. Deem and Ramdas Pophale) SiO2 
 PCOD9011348
Probable space group: P -1
;
_chemical_formula_sum "Si O2"
_cell_formula_units_Z 14
_cell_length_a 10.872536
_cell_length_b 5.166956
_cell_length_c 12.156028
_cell_angle_alpha 96.073643
_cell_angle_beta 125.633133
_cell_angle_gamma 88.829544
_cell_volume 551.203070
_symmetry_space_group_name_H-M "P -1"
_symmetry_group_IT_number 2
_symmetry_cell_setting 'triclinic'
loop_
_space_group_symop_operation_xyz
x,y,z
-x,-y,-z
loop_
_atom_site_type_symbol
_atom_site_label
_atom_site_fract_x
_atom_site_fract_y
_atom_site_fract_z
Si Si1 0.416914 0.653958 0.367432
Si Si2 0.720949 0.663523 0.409826
Si Si3 0.057827 0.507466 0.853294
Si Si4 0.825285 0.747623 0.878640
Si Si5 0.690192 0.080111 0.987692
Si Si6 0.181944 0.820026 0.418911
Si Si7 0.616428 0.715755 0.122402
O O1 0.500000 0.500000 0.500000
O O2 0.556606 0.753479 0.370351
O O3 0.313752 0.451240 0.233042
O O4 0.302471 0.836956 0.379854
O O5 0.755907 0.390354 0.472080
O O6 0.711170 0.635555 0.272867
O O7 0.832347 0.900099 0.520690
O O8 0.212917 0.664579 0.911293
O O9 0.939520 0.729724 0.835932
O O10 0.970604 0.319027 0.714455
O O11 0.087362 0.350951 0.973319
O O12 0.756244 0.008589 0.899630
O O13 0.709339 0.864572 0.081865
O O14 0.509704 0.091480 0.888182
O O15 0.500000 0.500000 0.000000
#
# Coordination Sequence:
#
# PCOD9011348 Si02
#       7
#     2   2   2   2   2   2   2
#     4   9  19  37  62  97 135 170 217 273 338 395
#     4  11  23  42  65  95 134 174 226 272 342 391
#     4  10  22  42  64  99 135 172 220 270 335 406
#     4  10  21  40  66 100 133 173 219 273 337 400
#     4  11  23  40  70  93 128 173 225 280 329 395
#     4  10  24  40  65  96 135 177 217 276 331 411
#     4  11  26  43  67  96 128 172 230 283 332 390
#
# _framework density 25.398990000000001
#
# number of rings (size 3 to 8) (size 9 to 14) (size 15 to 20)
#    0.000    1.714    0.000    3.429   10.000    0.000 
#   18.000    1.429    0.000    0.000    0.000    0.000 
#    0.000    0.000    0.000    0.000    0.000    0.000 
#
# Total GULP energy -78377.649190 kJ/mol
# GULP energy per Si atom -5598.403514 kJ/mol
# Density = 2.534118 g / cm^3
# Si number density = 25.398990 Si / 1000 Ang^3
#
#
#
# Elastic Constant Matrix: (Units=GPa)
#
#
# Indices 1 2 3 4 5 6 
#
# 1 83.0484 2.6618 11.9836 3.8467 4.8302 2.1691
# 2 2.6618 65.6338 10.8863 8.8220 -14.4580 14.6469
# 3 11.9836 10.8863 129.5757 7.9481 -17.5166 9.4584
# 4 3.8467 8.8220 7.9481 44.8335 2.6486 1.9909
# 5 4.8302 -14.4580 -17.5166 2.6486 39.5542 -1.0140
# 6 2.1691 14.6469 9.4584 1.9909 -1.0140 35.3246
#
#
#
# Elastic Compliance Matrix: (Units=1/GPa)
#
#
# Indices 1 2 3 4 5 6 
#
# 1 0.012425 -0.000686 -0.001363 -0.000544 -0.002339 -0.000150
# 2 -0.000686 0.018989 0.000218 -0.003809 0.007185 -0.007469
# 3 -0.001363 0.000218 0.008635 -0.001607 0.004124 -0.002110
# 4 -0.000544 -0.003809 -0.001607 0.023571 -0.003600 0.000611
# 5 -0.002339 0.007185 0.004124 -0.003600 0.030188 -0.002870
# 6 -0.000150 -0.007469 -0.002110 0.000611 -0.002870 0.031863
#
#
# Mechanical properties :
#
#
# Convention : Reuss Voigt Hill
#
# Bulk Modulus (GPa) = 27.48270 36.59125 32.03697
# Shear Modulus (GPa) = 35.34475 40.79087 38.06781
#
# Velocity S-wave (km/s) = 3.73444 4.01185 3.87562
# Velocity P-wave (km/s) = 5.42573 5.99147 5.71561
#
# Compressibility (1/GPa) = 0.03638653
#
# Stress axis : x y z
#
# Youngs Moduli (GPa) = 80.48236 52.66135 115.80350
#
# Poissons Ratio (x) = 0.03615 0.15788
# Poissons Ratio (y) = 0.05525 -0.02528
# Poissons Ratio (z) = 0.10973 -0.01150
#
# Static dielectric constant tensor:
#      x y z
#    x 2.098120 -0.131910 -0.011350 
#    y -0.131910 2.054450 -0.015450 
#    z -0.011350 -0.015450 1.955780 
# 
# From -- ./inp_files/65921.got.cif
#   From: 2010.05.17/outbox.cif.g08.bks.cpg/sg2_33_cif.got.tgz:65921.got - 2010.06.03 11:33:40.
