data_PCOD9011956
_publ_section_title
;
Structure prediction by ZEFSAII (Michael W. Deem and Ramdas Pophale) SiO2 
 PCOD9011956
Probable space group: P -1
;
_chemical_formula_sum "Si O2"
_cell_formula_units_Z 16
_cell_length_a 14.639397
_cell_length_b 5.555950
_cell_length_c 14.769920
_cell_angle_alpha 122.024000
_cell_angle_beta 134.179946
_cell_angle_gamma 51.261275
_cell_volume 662.413075
_symmetry_space_group_name_H-M "P -1"
_symmetry_group_IT_number 2
_symmetry_cell_setting 'triclinic'
loop_
_space_group_symop_operation_xyz
x,y,z
-x,-y,-z
loop_
_atom_site_type_symbol
_atom_site_label
_atom_site_fract_x
_atom_site_fract_y
_atom_site_fract_z
Si Si1 0.590044 0.686539 0.696265
Si Si2 0.001420 0.126289 0.266548
Si Si3 0.488289 0.679612 0.168008
Si Si4 0.603515 0.630487 0.487068
Si Si5 0.924824 0.276512 0.577712
Si Si6 0.623710 0.079658 0.061461
Si Si7 0.112109 0.643435 0.091417
Si Si8 0.784870 0.401909 0.034560
O O1 0.634265 0.549612 0.599268
O O2 0.496829 0.530669 0.645465
O O3 0.732461 0.623307 0.834432
O O4 0.496810 0.058955 0.708909
O O5 0.026406 0.442484 0.351203
O O6 0.845409 0.233529 0.137281
O O7 0.031611 0.916509 0.335231
O O8 0.093505 0.909439 0.204761
O O9 0.623385 0.361360 0.178423
O O10 0.433440 0.814314 0.057066
O O11 0.358386 0.611932 0.096792
O O12 0.752995 0.475015 0.507640
O O13 0.500000 0.000000 0.500000
O O14 0.000000 0.000000 0.500000
O O15 0.759646 0.760170 0.097359
O O16 0.500000 0.000000 0.000000
O O17 0.114024 0.734985 0.007121
O O18 0.000000 0.500000 0.000000
#
# Coordination Sequence:
#
# PCOD9011956 Si02
#       8
#     2   2   2   2   2   2   2   2
#     4  11  24  45  74 107 146 196 262 324 392 458
#     4  12  27  49  79 110 159 201 259 332 394 477
#     4  10  21  40  68 100 151 185 252 304 382 472
#     4  11  27  50  78 107 147 200 272 332 394 457
#     4  12  29  57  81 113 156 211 275 339 400 465
#     4   9  20  40  60  98 149 192 238 302 369 478
#     4  12  24  45  75 115 158 202 256 320 408 486
#     4  11  24  40  71 111 149 200 243 308 404 481
#
# _framework density 24.154109999999999
#
# number of rings (size 3 to 8) (size 9 to 14) (size 15 to 20)
#    0.000    1.000    2.500    3.000    7.000    0.000 
#    9.000    0.000    0.000    0.000    0.000    0.000 
#    0.000    0.000    0.000    0.000    0.000    0.000 
#
# Total GULP energy -89387.914085 kJ/mol
# GULP energy per Si atom -5586.744630 kJ/mol
# Density = 2.409913 g / cm^3
# Si number density = 24.154110 Si / 1000 Ang^3
#
#
#
# Elastic Constant Matrix: (Units=GPa)
#
#
# Indices 1 2 3 4 5 6 
#
# 1 118.6565 37.0965 51.6239 9.3276 -8.1963 -3.4877
# 2 37.0965 153.2264 56.4601 26.0255 -10.5562 -14.8821
# 3 51.6239 56.4601 99.4264 12.7987 -0.2014 -6.1868
# 4 9.3276 26.0255 12.7987 64.2356 1.8944 -9.8707
# 5 -8.1963 -10.5562 -0.2014 1.8944 42.9187 6.4922
# 6 -3.4877 -14.8821 -6.1868 -9.8707 6.4922 45.7225
#
#
#
# Elastic Compliance Matrix: (Units=1/GPa)
#
#
# Indices 1 2 3 4 5 6 
#
# 1 0.011124 -0.000509 -0.005452 -0.000452 0.002061 -0.000445
# 2 -0.000509 0.008984 -0.004418 -0.002519 0.001982 0.001462
# 3 -0.005452 -0.004418 0.015469 -0.000368 -0.002109 0.000459
# 4 -0.000452 -0.002519 -0.000368 0.017260 -0.001938 0.003097
# 5 0.002061 0.001982 -0.002109 -0.001938 0.024774 -0.003419
# 6 -0.000445 0.001462 0.000459 0.003097 -0.003419 0.023529
#
#
# Mechanical properties :
#
#
# Convention : Reuss Voigt Hill
#
# Bulk Modulus (GPa) = 67.48175 73.51892 70.50033
# Shear Modulus (GPa) = 39.42060 45.65061 42.53561
#
# Velocity S-wave (km/s) = 4.04424 4.35210 4.20099
# Velocity P-wave (km/s) = 7.05737 7.46712 7.26513
#
# Compressibility (1/GPa) = 0.01481882
#
# Stress axis : x y z
#
# Youngs Moduli (GPa) = 89.89949 111.31039 64.64523
#
# Poissons Ratio (x) = 0.05661 0.35245
# Poissons Ratio (y) = 0.04572 0.28562
# Poissons Ratio (z) = 0.49014 0.49179
#
# Static dielectric constant tensor:
#      x y z
#    x 1.947890 0.019960 -0.000280 
#    y 0.019960 2.049580 -0.010980 
#    z -0.000280 -0.010980 1.923270 
# 
# From -- ./inp_files/526065.got.cif
#   From: 2010.05.17/outbox.cif.g08.bks.cpg/sg2_264_cif.got.tgz:526065.got - 2010.06.03 11:33:40.
