data_PCOD9011951
_publ_section_title
;
Structure prediction by ZEFSAII (Michael W. Deem and Ramdas Pophale) SiO2 
 PCOD9011951
Probable space group: P -1
;
_chemical_formula_sum "Si O2"
_cell_formula_units_Z 16
_cell_length_a 7.581005
_cell_length_b 5.415488
_cell_length_c 28.293418
_cell_angle_alpha 126.651070
_cell_angle_beta 130.133438
_cell_angle_gamma 40.102131
_cell_volume 559.181450
_symmetry_space_group_name_H-M "P -1"
_symmetry_group_IT_number 2
_symmetry_cell_setting 'triclinic'
loop_
_space_group_symop_operation_xyz
x,y,z
-x,-y,-z
loop_
_atom_site_type_symbol
_atom_site_label
_atom_site_fract_x
_atom_site_fract_y
_atom_site_fract_z
Si Si1 0.059811 0.316195 0.364714
Si Si2 0.236174 0.455689 0.502889
Si Si3 0.286122 0.310943 0.229688
Si Si4 0.286256 0.627914 0.864146
Si Si5 0.956058 0.840806 0.926356
Si Si6 0.263883 0.792064 0.769127
Si Si7 0.735344 0.599114 0.933181
Si Si8 0.611849 0.562684 0.639792
O O1 0.108109 0.542190 0.438083
O O2 0.214279 0.329895 0.347337
O O3 0.759978 0.437781 0.303809
O O4 0.201154 0.897173 0.366057
O O5 0.356366 0.660296 0.572011
O O6 0.000000 0.500000 0.500000
O O7 0.500000 0.000000 0.500000
O O8 0.526778 0.116762 0.207215
O O9 0.460406 0.236771 0.299142
O O10 0.052345 0.229066 0.186951
O O11 0.055175 0.780591 0.232693
O O12 0.352776 0.587096 0.811768
O O13 0.392170 0.914723 0.921896
O O14 0.227565 0.605613 0.910471
O O15 0.705200 0.254651 0.902612
O O16 0.821266 0.644410 0.902073
O O17 0.000000 0.000000 0.000000
O O18 0.000000 0.500000 0.000000
#
# Coordination Sequence:
#
# PCOD9011951 Si02
#       8
#     2   2   2   2   2   2   2   2
#     4  10  21  44  67 103 141 191 241 305 361 430
#     4  10  21  40  68 100 138 190 244 301 363 429
#     4  11  26  46  70 105 148 193 244 301 364 435
#     4  12  26  42  74 101 146 184 244 290 366 435
#     4  10  25  46  71 103 140 181 231 292 356 426
#     4  11  26  46  70 105 148 193 244 301 364 435
#     4  10  25  46  71 103 140 181 231 292 356 426
#     4  10  21  44  67 103 141 191 241 305 361 430
#
# _framework density 28.613253
#
# number of rings (size 3 to 8) (size 9 to 14) (size 15 to 20)
#    0.000    1.500    1.250    1.875    7.000    4.000 
#    0.000   17.500    0.000    0.000    0.000    0.000 
#    0.000    0.000    0.000    0.000    0.000    0.000 
#
# Total GULP energy -89141.719552 kJ/mol
# GULP energy per Si atom -5571.357472 kJ/mol
# Density = 2.854813 g / cm^3
# Si number density = 28.613253 Si / 1000 Ang^3
#
#
#
# Elastic Constant Matrix: (Units=GPa)
#
#
# Indices 1 2 3 4 5 6 
#
# 1 280.6083 49.0752 50.8589 -8.3989 8.6656 34.9974
# 2 49.0752 138.9184 3.8526 -39.2331 -6.6727 12.7798
# 3 50.8589 3.8526 230.3726 9.5093 -10.3375 15.7898
# 4 -8.3989 -39.2331 9.5093 -6.8466 12.7763 -4.2277
# 5 8.6656 -6.6727 -10.3375 12.7763 70.2834 -1.8060
# 6 34.9974 12.7798 15.7898 -4.2277 -1.8060 41.4740
#
#
#
# Elastic Compliance Matrix: (Units=1/GPa)
#
#
# Indices 1 2 3 4 5 6 
#
# 1 0.004322 -0.001160 -0.000787 0.000402 -0.000909 -0.002988
# 2 -0.001160 0.004075 0.001018 -0.013559 0.003095 -0.001912
# 3 -0.000787 0.001018 0.004477 0.002652 0.000343 -0.001068
# 4 0.000402 -0.013559 0.002652 -0.049199 0.007949 -0.001840
# 5 -0.000909 0.003095 0.000343 0.007949 0.013267 0.001071
# 6 -0.002988 -0.001912 -0.001068 -0.001840 0.001071 0.027488
#
#
# Mechanical properties :
#
#
# Convention : Reuss Voigt Hill
#
# Bulk Modulus (GPa) = 90.79119 95.27474 93.03297
# Shear Modulus (GPa) = 501.94671 57.38965 279.66818
#
# Velocity S-wave (km/s) = 13.25916 4.48336 9.89712
# Velocity P-wave (km/s) = 16.31584 7.75696 12.77453
#
# Compressibility (1/GPa) = 0.01101428
#
# Stress axis : x y z
#
# Youngs Moduli (GPa) = 231.36848 245.38382 223.37683
#
# Poissons Ratio (x) = 0.28469 0.17587
# Poissons Ratio (y) = 0.26843 -0.22731
# Poissons Ratio (z) = 0.18216 -0.24970
#
# Static dielectric constant tensor:
#      x y z
#    x 2.253030 -0.007250 0.070840 
#    y -0.007250 2.433570 0.069120 
#    z 0.070840 0.069120 2.261560 
# 
# From -- ./inp_files/125955.got.cif
#   From: 2010.05.17/outbox.cif.g08.bks.cpg/sg2_63_cif.got.tgz:125955.got - 2010.06.03 11:33:40.
