data_PCOD9011701
_publ_section_title
;
Structure prediction by ZEFSAII (Michael W. Deem and Ramdas Pophale) SiO2 
 PCOD9011701
Probable space group: P -1
;
_chemical_formula_sum "Si O2"
_cell_formula_units_Z 16
_cell_length_a 14.960738
_cell_length_b 8.789120
_cell_length_c 11.619052
_cell_angle_alpha 129.329538
_cell_angle_beta 138.195681
_cell_angle_gamma 73.720956
_cell_volume 731.035670
_symmetry_space_group_name_H-M "P -1"
_symmetry_group_IT_number 2
_symmetry_cell_setting 'triclinic'
loop_
_space_group_symop_operation_xyz
x,y,z
-x,-y,-z
loop_
_atom_site_type_symbol
_atom_site_label
_atom_site_fract_x
_atom_site_fract_y
_atom_site_fract_z
Si Si1 0.176467 0.654333 0.891866
Si Si2 0.349050 0.428737 0.557657
Si Si3 0.666185 0.369751 0.600821
Si Si4 0.061886 0.166838 0.249323
Si Si5 0.818754 0.048631 0.540751
Si Si6 0.926613 0.567953 0.073191
Si Si7 0.414123 0.075311 0.359066
Si Si8 0.618335 0.599147 0.060322
O O1 0.121084 0.590959 0.940951
O O2 0.247718 0.481892 0.847599
O O3 0.052249 0.732971 0.765379
O O4 0.316322 0.864497 0.103903
O O5 0.342584 0.556196 0.499759
O O6 0.203384 0.382921 0.467001
O O7 0.320343 0.183892 0.386043
O O8 0.508368 0.526466 0.812245
O O9 0.732293 0.186499 0.575819
O O10 0.514068 0.259735 0.462148
O O11 0.776153 0.562649 0.873216
O O12 0.106743 0.036214 0.327557
O O13 0.000000 0.000000 0.000000
O O14 0.950664 0.208471 0.668314
O O15 0.699026 0.850619 0.269143
O O16 0.000000 0.500000 0.000000
O O17 0.500000 0.000000 0.500000
O O18 0.500000 0.500000 0.000000
#
# Coordination Sequence:
#
# PCOD9011701 Si02
#       8
#     2   2   2   2   2   2   2   2
#     4  12  25  42  71 104 139 183 231 284 351 415
#     4  12  24  41  70 102 136 177 233 290 350 412
#     4  11  22  41  68 105 134 174 231 299 352 403
#     4  12  22  41  71 104 131 175 229 289 355 408
#     4  11  24  43  68  93 143 185 226 282 347 411
#     4  10  21  40  67 101 136 171 221 296 351 396
#     4  12  21  40  69 102 138 175 226 293 360 407
#     4  12  26  48  69  97 140 194 237 278 338 424
#
# _framework density 21.886758
#
# number of rings (size 3 to 8) (size 9 to 14) (size 15 to 20)
#    0.000    0.500    5.000    5.625    0.000    1.500 
#    0.000    0.000    0.000    0.000    0.000    0.000 
#    0.000    0.000    0.000    0.000    0.000    0.000 
#
# Total GULP energy -89171.123695 kJ/mol
# GULP energy per Si atom -5573.195231 kJ/mol
# Density = 2.183694 g / cm^3
# Si number density = 21.886758 Si / 1000 Ang^3
#
#
#
# Elastic Constant Matrix: (Units=GPa)
#
#
# Indices 1 2 3 4 5 6 
#
# 1 61.9979 20.6900 4.7815 -0.2976 26.2917 -0.3440
# 2 20.6900 87.7531 15.0585 -23.0345 3.0270 -1.4635
# 3 4.7815 15.0585 81.2964 21.4633 18.5852 -2.3219
# 4 -0.2976 -23.0345 21.4633 42.7596 5.2488 4.7933
# 5 26.2917 3.0270 18.5852 5.2488 30.1496 1.3118
# 6 -0.3440 -1.4635 -2.3219 4.7933 1.3118 42.9774
#
#
#
# Elastic Compliance Matrix: (Units=1/GPa)
#
#
# Indices 1 2 3 4 5 6 
#
# 1 0.031729 -0.009237 0.008429 -0.005389 -0.031084 0.001945
# 2 -0.009237 0.018052 -0.008364 0.012909 0.009222 -0.001632
# 3 0.008429 -0.008364 0.020830 -0.013117 -0.017194 0.002896
# 4 -0.005389 0.012909 -0.013117 0.036750 0.005290 -0.004572
# 5 -0.031084 0.009222 -0.017194 0.005290 0.069182 -0.003565
# 6 0.001945 -0.001632 0.002896 -0.004572 -0.003565 0.024003
#
#
# Mechanical properties :
#
#
# Convention : Reuss Voigt Hill
#
# Bulk Modulus (GPa) = 19.13207 34.67859 26.90533
# Shear Modulus (GPa) = 21.15840 35.87848 28.51844
#
# Velocity S-wave (km/s) = 3.11259 4.05319 3.61362
# Velocity P-wave (km/s) = 4.65596 6.14682 5.45259
#
# Compressibility (1/GPa) = 0.05226827
#
# Stress axis : x y z
#
# Youngs Moduli (GPa) = 31.51695 55.39558 48.00665
#
# Poissons Ratio (x) = 0.51170 -0.40466
# Poissons Ratio (y) = 0.29113 0.40151
# Poissons Ratio (z) = -0.26566 0.46330
#
# Static dielectric constant tensor:
#      x y z
#    x 1.890900 -0.037160 -0.003090 
#    y -0.037160 1.811160 0.019540 
#    z -0.003090 0.019540 1.842080 
# 
# From -- ./inp_files/298612.got.cif
#   From: 2010.05.17/outbox.cif.g08.bks.cpg/sg2_150_cif.got.tgz:298612.got - 2010.06.03 11:33:40.
