data_PCOD9011070
_publ_section_title
;
Structure prediction by ZEFSAII (Michael W. Deem and Ramdas Pophale) SiO2 
 PCOD9011070
Probable space group: P -1
;
_chemical_formula_sum "Si O2"
_cell_formula_units_Z 16
_cell_length_a 16.320587
_cell_length_b 13.022570
_cell_length_c 11.166705
_cell_angle_alpha 98.501882
_cell_angle_beta 117.709515
_cell_angle_gamma 28.192953
_cell_volume 773.820569
_symmetry_space_group_name_H-M "P -1"
_symmetry_group_IT_number 2
_symmetry_cell_setting 'triclinic'
loop_
_space_group_symop_operation_xyz
x,y,z
-x,-y,-z
loop_
_atom_site_type_symbol
_atom_site_label
_atom_site_fract_x
_atom_site_fract_y
_atom_site_fract_z
Si Si1 0.435346 0.481298 0.723155
Si Si2 0.247460 0.495319 0.950844
Si Si3 0.929925 0.453006 0.953552
Si Si4 0.971465 0.259105 0.591250
Si Si5 0.596465 0.784911 0.552379
Si Si6 0.694453 0.080938 0.018910
Si Si7 0.568785 0.284110 0.306602
Si Si8 0.287045 0.901172 0.370166
O O1 0.556389 0.318705 0.900957
O O2 0.367691 0.671487 0.700635
O O3 0.637410 0.245969 0.717281
O O4 0.205832 0.645336 0.563707
O O5 0.482898 0.240932 0.979068
O O6 0.330140 0.488862 0.111422
O O7 0.009388 0.785620 0.768152
O O8 0.165407 0.480438 0.968761
O O9 0.719647 0.651090 0.744493
O O10 0.000000 0.500000 0.000000
O O11 0.166595 0.136468 0.020433
O O12 0.806435 0.531336 0.555646
O O13 0.203828 0.030803 0.622263
O O14 0.097419 0.099248 0.776497
O O15 0.388519 0.912505 0.423416
O O16 0.500000 0.000000 0.500000
O O17 0.567840 0.293212 0.449499
#
# Coordination Sequence:
#
# PCOD9011070 Si02
#       8
#     2   2   2   2   2   2   2   2
#     4  11  22  38  65  91 128 175 209 256 319 363
#     4  11  23  41  65  92 128 166 210 262 311 377
#     4  11  22  42  68  90 128 164 206 266 322 373
#     4   9  22  39  62  87 128 161 211 259 309 374
#     4  10  21  40  65  90 119 164 209 257 325 375
#     4  10  23  42  63  94 129 165 212 261 308 379
#     4  11  23  40  60  95 128 169 214 259 310 372
#     4  11  22  39  61  92 130 162 213 260 307 379
#
# _framework density 20.676629999999999
#
# number of rings (size 3 to 8) (size 9 to 14) (size 15 to 20)
#    0.000    1.500    2.500    2.250    1.750    4.000 
#    0.000    1.875    0.000    0.000    0.000    0.000 
#    0.000    0.000    0.000    0.000    0.000    0.000 
#
# Total GULP energy -89367.974522 kJ/mol
# GULP energy per Si atom -5585.498408 kJ/mol
# Density = 2.062957 g / cm^3
# Si number density = 20.676630 Si / 1000 Ang^3
#
#
#
# Elastic Constant Matrix: (Units=GPa)
#
#
# Indices 1 2 3 4 5 6 
#
# 1 63.9337 25.9124 5.8311 -1.9001 -20.9592 2.5019
# 2 25.9124 62.5235 14.6322 -12.2442 -5.5831 4.1546
# 3 5.8311 14.6322 92.3995 -10.7934 -2.1816 3.6042
# 4 -1.9001 -12.2442 -10.7934 27.0978 -3.0561 -0.2633
# 5 -20.9592 -5.5831 -2.1816 -3.0561 25.9832 4.6999
# 6 2.5019 4.1546 3.6042 -0.2633 4.6999 27.4703
#
#
#
# Elastic Compliance Matrix: (Units=1/GPa)
#
#
# Indices 1 2 3 4 5 6 
#
# 1 0.025800 -0.008674 0.000417 0.000248 0.019822 -0.004482
# 2 -0.008674 0.021676 -0.001867 0.008292 -0.001165 -0.001964
# 3 0.000417 -0.001867 0.011658 0.004002 0.001662 -0.001531
# 4 0.000248 0.008292 0.004002 0.043124 0.007885 -0.002737
# 5 0.019822 -0.001165 0.001662 0.007885 0.057389 -0.011590
# 6 -0.004482 -0.001964 -0.001531 -0.002737 -0.011590 0.039266
#
#
# Mechanical properties :
#
#
# Convention : Reuss Voigt Hill
#
# Bulk Modulus (GPa) = 25.71609 34.62311 30.16960
# Shear Modulus (GPa) = 21.54032 27.60900 24.57466
#
# Velocity S-wave (km/s) = 3.23115 3.65811 3.45124
# Velocity P-wave (km/s) = 5.13661 5.88419 5.52306
#
# Compressibility (1/GPa) = 0.03888616
#
# Stress axis : x y z
#
# Youngs Moduli (GPa) = 38.76030 46.13380 85.77527
#
# Poissons Ratio (x) = 0.40015 -0.03579
# Poissons Ratio (y) = 0.33619 0.16018
# Poissons Ratio (z) = -0.01617 0.08615
#
# Static dielectric constant tensor:
#      x y z
#    x 1.726920 -0.034360 -0.008180 
#    y -0.034360 1.750590 -0.006480 
#    z -0.008180 -0.006480 1.758860 
# 
# From -- ./inp_files/272041.got.cif
#   From: 2010.05.17/outbox.cif.g08.bks.cpg/sg2_137_cif.got.tgz:272041.got - 2010.06.03 11:33:40.
