data_PCOD9011206
_publ_section_title
;
Structure prediction by ZEFSAII (Michael W. Deem and Ramdas Pophale) SiO2 
 PCOD9011206
Probable space group: P -1
;
_chemical_formula_sum "Si O2"
_cell_formula_units_Z 15
_cell_length_a 12.930398
_cell_length_b 16.344065
_cell_length_c 11.420825
_cell_angle_alpha 45.079203
_cell_angle_beta 131.108852
_cell_angle_gamma 154.995739
_cell_volume 721.147474
_symmetry_space_group_name_H-M "P -1"
_symmetry_group_IT_number 2
_symmetry_cell_setting 'triclinic'
loop_
_space_group_symop_operation_xyz
x,y,z
-x,-y,-z
loop_
_atom_site_type_symbol
_atom_site_label
_atom_site_fract_x
_atom_site_fract_y
_atom_site_fract_z
Si Si1 0.122143 0.675757 0.753624
Si Si2 0.554930 0.149283 0.659904
Si Si3 0.500000 0.000000 0.000000
Si Si4 0.844758 0.243107 0.570241
Si Si5 0.362239 0.670841 0.113007
Si Si6 0.597564 0.417148 0.332335
Si Si7 0.258050 0.084893 0.214314
Si Si8 0.301295 0.264536 0.830406
O O1 0.122061 0.674886 0.614364
O O2 0.859253 0.515879 0.777015
O O3 0.298216 0.903182 0.698308
O O4 0.231239 0.636099 0.935034
O O5 0.717298 0.230396 0.586621
O O6 0.527375 0.267403 0.522929
O O7 0.653123 0.165143 0.836716
O O8 0.511519 0.881058 0.066271
O O9 0.111603 0.392516 0.664094
O O10 0.697200 0.020577 0.663936
O O11 0.539556 0.690762 0.191784
O O12 0.443563 0.276471 0.246057
O O13 0.566240 0.524918 0.245121
O O14 0.276890 0.161674 0.026874
O O15 0.980678 0.902528 0.242322
#
# Coordination Sequence:
#
# PCOD9011206 Si02
#       8
#     2   2   1   2   2   2   2   2
#     4  10  21  40  65  94 129 166 213 271 325 385
#     4  11  22  40  64  98 132 171 207 276 324 375
#     4  10  22  42  62  92 130 156 218 266 316 394
#     4  11  22  40  69  96 129 165 215 278 326 369
#     4  10  22  42  65  92 131 176 206 270 332 375
#     4  11  23  39  65  99 129 167 224 263 314 392
#     4  10  21  42  64  95 131 169 222 267 313 386
#     4  10  23  43  64  91 134 178 210 264 323 380
#
# _framework density 20.800184000000002
#
# number of rings (size 3 to 8) (size 9 to 14) (size 15 to 20)
#    0.000    1.600    1.333    3.600    1.867    0.000 
#   12.000    6.667    0.000    0.000    0.000    0.000 
#    0.000    0.000    0.000    0.000    0.000    0.000 
#
# Total GULP energy -83567.630147 kJ/mol
# GULP energy per Si atom -5571.175343 kJ/mol
# Density = 2.075284 g / cm^3
# Si number density = 20.800184 Si / 1000 Ang^3
#
#
#
# Elastic Constant Matrix: (Units=GPa)
#
#
# Indices 1 2 3 4 5 6 
#
# 1 127.9561 26.3614 41.6564 -10.5454 1.2079 -8.8876
# 2 26.3614 71.3576 -8.5505 -3.5687 -4.4669 -10.0452
# 3 41.6564 -8.5505 90.4642 -19.1783 -12.4250 -3.0664
# 4 -10.5454 -3.5687 -19.1783 22.2389 3.3867 3.6683
# 5 1.2079 -4.4669 -12.4250 3.3867 16.2647 -8.9744
# 6 -8.8876 -10.0452 -3.0664 3.6683 -8.9744 28.9538
#
#
#
# Elastic Compliance Matrix: (Units=1/GPa)
#
#
# Indices 1 2 3 4 5 6 
#
# 1 0.011254 -0.005859 -0.007032 0.000051 -0.008996 -0.002118
# 2 -0.005859 0.019914 0.007944 0.002792 0.017468 0.011012
# 3 -0.007032 0.007944 0.020459 0.011258 0.020178 0.007592
# 4 0.000051 0.002792 0.011258 0.057304 -0.006483 -0.007093
# 5 -0.008996 0.017468 0.020178 -0.006483 0.105148 0.038848
# 6 -0.002118 0.011012 0.007592 -0.007093 0.038848 0.051452
#
#
# Mechanical properties :
#
#
# Convention : Reuss Voigt Hill
#
# Bulk Modulus (GPa) = 23.96239 45.41251 34.68745
# Shear Modulus (GPa) = 17.28105 28.84552 23.06329
#
# Velocity S-wave (km/s) = 2.88551 3.72801 3.33348
# Velocity P-wave (km/s) = 4.75887 6.35695 5.61505
#
# Compressibility (1/GPa) = 0.04173206
#
# Stress axis : x y z
#
# Youngs Moduli (GPa) = 88.86044 50.21706 48.87935
#
# Poissons Ratio (x) = 0.29421 0.34374
# Poissons Ratio (y) = 0.52061 -0.38831
# Poissons Ratio (z) = 0.62489 -0.39894
#
# Static dielectric constant tensor:
#      x y z
#    x 1.702710 0.001410 -0.004660 
#    y 0.001410 1.784420 0.053990 
#    z -0.004660 0.053990 1.772230 
# 
# From -- ./inp_files/431137.got.cif
#   From: 2010.05.17/outbox.cif.g08.bks.cpg/sg2_216_cif.got.tgz:431137.got - 2010.06.03 11:33:40.
