data_PCOD9011163
_publ_section_title
;
Structure prediction by ZEFSAII (Michael W. Deem and Ramdas Pophale) SiO2 
 PCOD9011163
Probable space group: P -1
;
_chemical_formula_sum "Si O2"
_cell_formula_units_Z 16
_cell_length_a 23.734655
_cell_length_b 14.473521
_cell_length_c 9.465397
_cell_angle_alpha 44.615384
_cell_angle_beta 50.239832
_cell_angle_gamma 21.305157
_cell_volume 826.201273
_symmetry_space_group_name_H-M "P -1"
_symmetry_group_IT_number 2
_symmetry_cell_setting 'triclinic'
loop_
_space_group_symop_operation_xyz
x,y,z
-x,-y,-z
loop_
_atom_site_type_symbol
_atom_site_label
_atom_site_fract_x
_atom_site_fract_y
_atom_site_fract_z
Si Si1 0.835674 0.265597 0.848992
Si Si2 0.384122 0.853964 0.869714
Si Si3 0.317538 0.788705 0.507624
Si Si4 0.430074 0.216856 0.482387
Si Si5 0.297702 0.796047 0.848571
Si Si6 0.810206 0.298873 0.162611
Si Si7 0.661780 0.748138 0.105208
Si Si8 0.181211 0.234228 0.048017
O O1 0.730052 0.481442 0.657714
O O2 0.826638 0.122610 0.029732
O O3 0.765066 0.421900 0.943419
O O4 0.011141 0.023347 0.798933
O O5 0.453761 0.844156 0.653714
O O6 0.282747 0.913541 0.877649
O O7 0.532429 0.543501 0.038457
O O8 0.284690 0.075027 0.912478
O O9 0.500000 0.500000 0.500000
O O10 0.287957 0.874968 0.624453
O O11 0.271436 0.708134 0.658356
O O12 0.230749 0.026056 0.284040
O O13 0.394194 0.218094 0.690974
O O14 0.500000 0.000000 0.500000
O O15 0.774946 0.465945 0.151198
O O16 0.756697 0.735057 0.996574
O O17 0.500000 0.000000 0.000000
O O18 0.000000 0.500000 0.000000
#
# Coordination Sequence:
#
# PCOD9011163 Si02
#       8
#     2   2   2   2   2   2   2   2
#     4   9  21  42  65  95 128 165 222 284 328 386
#     4  10  21  40  65  93 127 169 222 276 330 391
#     4  11  22  41  69  94 130 178 227 271 329 404
#     4  11  22  39  65  90 129 173 222 268 332 398
#     4   9  20  38  68  95 118 169 229 272 318 399
#     4  10  23  41  69  95 128 173 228 278 330 397
#     4  12  27  44  68  99 134 181 228 274 335 408
#     4  12  28  45  64 101 149 173 212 286 351 391
#
# _framework density 19.365741
#
# number of rings (size 3 to 8) (size 9 to 14) (size 15 to 20)
#    0.000    1.500    2.500    1.500    8.750    1.500 
#    0.000    0.625    0.000    0.000    0.000    0.000 
#    0.000    0.000    0.000    0.000    0.000    0.000 
#
# Total GULP energy -89218.651894 kJ/mol
# GULP energy per Si atom -5576.165743 kJ/mol
# Density = 1.932166 g / cm^3
# Si number density = 19.365741 Si / 1000 Ang^3
#
#
#
# Elastic Constant Matrix: (Units=GPa)
#
#
# Indices 1 2 3 4 5 6 
#
# 1 132.1766 50.4369 33.5781 11.1929 -2.0515 3.5269
# 2 50.4369 71.1012 51.2205 3.4079 -7.1588 -11.8791
# 3 33.5781 51.2205 120.3755 5.4508 12.8369 -9.9856
# 4 11.1929 3.4079 5.4508 20.0002 -1.6906 3.1198
# 5 -2.0515 -7.1588 12.8369 -1.6906 20.8004 3.7756
# 6 3.5269 -11.8791 -9.9856 3.1198 3.7756 37.2154
#
#
#
# Elastic Compliance Matrix: (Units=1/GPa)
#
#
# Indices 1 2 3 4 5 6 
#
# 1 0.011302 -0.009316 0.001042 -0.004753 -0.002557 -0.003107
# 2 -0.009316 0.032349 -0.012707 0.003735 0.017320 0.005729
# 3 0.001042 -0.012707 0.015283 -0.004068 -0.014349 0.001743
# 4 -0.004753 0.003735 -0.004068 0.054629 0.008658 -0.004907
# 5 -0.002557 0.017320 -0.014349 0.008658 0.064311 -0.005330
# 6 -0.003107 0.005729 0.001743 -0.004907 -0.005330 0.030413
#
#
# Mechanical properties :
#
#
# Convention : Reuss Voigt Hill
#
# Bulk Modulus (GPa) = 58.92672 66.01382 62.47027
# Shear Modulus (GPa) = 19.53837 28.16438 23.85137
#
# Velocity S-wave (km/s) = 3.17979 3.81772 3.51326
# Velocity P-wave (km/s) = 6.63142 7.32088 6.98466
#
# Compressibility (1/GPa) = 0.01697023
#
# Stress axis : x y z
#
# Youngs Moduli (GPa) = 88.48240 30.91273 65.43386
#
# Poissons Ratio (x) = 0.28799 -0.06816
# Poissons Ratio (y) = 0.82433 0.83147
# Poissons Ratio (z) = -0.09217 0.39281
#
# Static dielectric constant tensor:
#      x y z
#    x 1.729940 -0.013750 -0.012320 
#    y -0.013750 1.687850 0.020020 
#    z -0.012320 0.020020 1.692780 
# 
# From -- ./inp_files/354301.got.cif
#   From: 2010.05.17/outbox.cif.g08.bks.cpg/sg2_178_cif.got.tgz:354301.got - 2010.06.03 11:33:40.
