data_PCOD9011623
_publ_section_title
;
Structure prediction by ZEFSAII (Michael W. Deem and Ramdas Pophale) SiO2 
 PCOD9011623
Probable space group: P -1
;
_chemical_formula_sum "Si O2"
_cell_formula_units_Z 16
_cell_length_a 9.245640
_cell_length_b 5.115000
_cell_length_c 21.548249
_cell_angle_alpha 132.264088
_cell_angle_beta 110.198945
_cell_angle_gamma 81.020962
_cell_volume 703.502177
_symmetry_space_group_name_H-M "P -1"
_symmetry_group_IT_number 2
_symmetry_cell_setting 'triclinic'
loop_
_space_group_symop_operation_xyz
x,y,z
-x,-y,-z
loop_
_atom_site_type_symbol
_atom_site_label
_atom_site_fract_x
_atom_site_fract_y
_atom_site_fract_z
Si Si1 0.953876 0.080487 0.436304
Si Si2 0.827336 0.096550 0.996840
Si Si3 0.662932 0.695703 0.799823
Si Si4 0.313774 0.201829 0.953854
Si Si5 0.544536 0.741042 0.141255
Si Si6 0.407635 0.423015 0.410293
Si Si7 0.384961 0.105750 0.692805
Si Si8 0.210893 0.797884 0.348743
O O1 0.000000 0.500000 0.500000
O O2 0.772869 0.966040 0.379751
O O3 0.000000 0.000000 0.500000
O O4 0.053852 0.871277 0.370020
O O5 0.726360 0.793726 0.893228
O O6 0.777995 0.069680 0.056802
O O7 0.789244 0.475306 0.025188
O O8 0.000000 0.000000 0.000000
O O9 0.513398 0.405322 0.732735
O O10 0.787085 0.549919 0.749648
O O11 0.601703 0.059543 0.827719
O O12 0.467381 0.375559 0.041383
O O13 0.368946 0.067858 0.874599
O O14 0.647238 0.773115 0.222593
O O15 0.500000 0.500000 0.500000
O O16 0.333432 0.731628 0.411551
O O17 0.528345 0.250324 0.356089
O O18 0.270241 0.126167 0.365028
#
# Coordination Sequence:
#
# PCOD9011623 Si02
#       8
#     2   2   2   2   2   2   2   2
#     4  12  28  47  66  97 140 174 219 283 348 406
#     4  11  23  42  65  95 138 179 221 271 341 394
#     4  10  23  41  67  96 133 170 232 275 324 403
#     4  10  23  39  66  97 134 178 220 277 330 398
#     4  10  21  40  66  97 133 169 233 280 328 391
#     4  11  22  40  67  94 122 168 221 266 328 404
#     4  11  23  41  70  96 133 177 227 280 335 398
#     4  11  23  42  63  94 128 169 211 273 336 387
#
# _framework density 22.743355999999999
#
# number of rings (size 3 to 8) (size 9 to 14) (size 15 to 20)
#    0.000    1.250    2.500    3.000    3.500    3.500 
#    0.000    0.000    0.000    0.000    0.000    0.000 
#    0.000    0.000    0.000    0.000    0.000    0.000 
#
# Total GULP energy -89452.261015 kJ/mol
# GULP energy per Si atom -5590.766313 kJ/mol
# Density = 2.269159 g / cm^3
# Si number density = 22.743356 Si / 1000 Ang^3
#
#
#
# Elastic Constant Matrix: (Units=GPa)
#
#
# Indices 1 2 3 4 5 6 
#
# 1 112.1905 25.8121 23.3877 -5.8154 -9.5135 -18.9077
# 2 25.8121 99.9913 26.4630 -10.4499 5.1678 -3.4709
# 3 23.3877 26.4630 82.7130 -19.0206 -14.4193 3.5805
# 4 -5.8154 -10.4499 -19.0206 37.7098 -2.7694 -12.6331
# 5 -9.5135 5.1678 -14.4193 -2.7694 48.5638 -3.1305
# 6 -18.9077 -3.4709 3.5805 -12.6331 -3.1305 28.5972
#
#
#
# Elastic Compliance Matrix: (Units=1/GPa)
#
#
# Indices 1 2 3 4 5 6 
#
# 1 0.011839 -0.001995 -0.001736 0.003906 0.002873 0.009843
# 2 -0.001995 0.011699 -0.003340 0.001348 -0.002497 0.000841
# 3 -0.001736 -0.003340 0.016288 0.007514 0.005300 0.000307
# 4 0.003906 0.001348 0.007514 0.038240 0.006283 0.019386
# 5 0.002873 -0.002497 0.005300 0.006283 0.023759 0.006310
# 6 0.009843 0.000841 0.000307 0.019386 0.006310 0.050795
#
#
# Mechanical properties :
#
#
# Convention : Reuss Voigt Hill
#
# Bulk Modulus (GPa) = 38.93712 49.58005 44.25859
# Shear Modulus (GPa) = 28.51834 37.58962 33.05398
#
# Velocity S-wave (km/s) = 3.54491 4.06984 3.81641
# Velocity P-wave (km/s) = 5.82345 6.62812 6.23877
#
# Compressibility (1/GPa) = 0.02568243
#
# Stress axis : x y z
#
# Youngs Moduli (GPa) = 84.46345 85.47655 61.39359
#
# Poissons Ratio (x) = 0.17056 0.10660
# Poissons Ratio (y) = 0.16854 0.20508
# Poissons Ratio (z) = 0.14666 0.28553
#
# Static dielectric constant tensor:
#      x y z
#    x 1.838650 -0.011660 -0.025170 
#    y -0.011660 1.884530 0.012010 
#    z -0.025170 0.012010 1.887460 
# 
# From -- ./inp_files/51168.got.cif
#   From: 2010.05.17/outbox.cif.g08.bks.cpg/sg2_26_cif.got.tgz:51168.got - 2010.06.03 11:33:40.
