data_PCOD9011144
_publ_section_title
;
Structure prediction by ZEFSAII (Michael W. Deem and Ramdas Pophale) SiO2 
 PCOD9011144
Probable space group: P -1
;
_chemical_formula_sum "Si O2"
_cell_formula_units_Z 14
_cell_length_a 12.357568
_cell_length_b 17.558919
_cell_length_c 7.184514
_cell_angle_alpha 82.299275
_cell_angle_beta 84.880656
_cell_angle_gamma 21.827274
_cell_volume 571.778675
_symmetry_space_group_name_H-M "P -1"
_symmetry_group_IT_number 2
_symmetry_cell_setting 'triclinic'
loop_
_space_group_symop_operation_xyz
x,y,z
-x,-y,-z
loop_
_atom_site_type_symbol
_atom_site_label
_atom_site_fract_x
_atom_site_fract_y
_atom_site_fract_z
Si Si1 0.452589 0.184251 0.236324
Si Si2 0.164941 0.310648 0.570764
Si Si3 0.309957 0.043646 0.101219
Si Si4 0.350863 0.710813 0.048067
Si Si5 0.108469 0.553445 0.100779
Si Si6 0.230667 0.690873 0.731320
Si Si7 0.023529 0.054774 0.624575
O O1 0.335495 0.193141 0.386981
O O2 0.179944 0.415922 0.136810
O O3 0.669886 0.101206 0.338822
O O4 0.623721 0.038556 0.081449
O O5 0.000000 0.500000 0.500000
O O6 0.936596 0.403046 0.680567
O O7 0.414583 0.147478 0.743145
O O8 0.056983 0.163517 0.203334
O O9 0.165434 0.222629 0.025970
O O10 0.505555 0.537013 0.181135
O O11 0.097294 0.893139 0.174752
O O12 0.609312 0.600769 0.002702
O O13 0.262219 0.741691 0.847883
O O14 0.182917 0.747294 0.510517
O O15 0.000000 0.000000 0.500000
#
# Coordination Sequence:
#
# PCOD9011144 Si02
#       7
#     2   2   2   2   2   2   2
#     4  11  24  43  68  96 135 177 220 277 336 394
#     4  10  23  45  69  99 135 170 226 280 328 400
#     4  11  22  44  71  94 134 180 218 275 339 393
#     4  10  22  41  63  96 132 174 215 276 334 394
#     4  10  24  42  66 100 132 174 225 270 326 405
#     4  10  21  40  65  92 133 172 221 270 333 404
#     4  12  24  38  64  99 133 173 223 276 333 399
#
# _framework density 24.484995999999999
#
# number of rings (size 3 to 8) (size 9 to 14) (size 15 to 20)
#    0.000    1.429    2.857    1.714    2.000    4.000 
#    2.571    5.714    0.000    0.000    0.000    0.000 
#    0.000    0.000    0.000    0.000    0.000    0.000 
#
# Total GULP energy -78100.243208 kJ/mol
# GULP energy per Si atom -5578.588801 kJ/mol
# Density = 2.442927 g / cm^3
# Si number density = 24.484996 Si / 1000 Ang^3
#
#
#
# Elastic Constant Matrix: (Units=GPa)
#
#
# Indices 1 2 3 4 5 6 
#
# 1 -50.2623 -45.3654 -40.0444 40.0024 10.7508 -74.3065
# 2 -45.3654 25.3219 -31.5853 8.0767 -15.2087 -52.9740
# 3 -40.0444 -31.5853 114.3712 39.4244 -32.0022 -70.0490
# 4 40.0024 8.0767 39.4244 44.3051 -11.3267 14.6153
# 5 10.7508 -15.2087 -32.0022 -11.3267 24.2125 -6.0248
# 6 -74.3065 -52.9740 -70.0490 14.6153 -6.0248 -33.2950
#
#
#
# Elastic Compliance Matrix: (Units=1/GPa)
#
#
# Indices 1 2 3 4 5 6 
#
# 1 -0.051798 0.030543 0.019233 0.038863 0.092470 0.026868
# 2 0.030543 -0.005185 -0.015222 -0.017644 -0.051730 -0.026274
# 3 0.019233 -0.015222 -0.001916 -0.015837 -0.031983 -0.015837
# 4 0.038863 -0.017644 -0.015837 -0.003729 -0.055241 -0.016981
# 5 0.092470 -0.051730 -0.031983 -0.055241 -0.115334 -0.060156
# 6 0.026868 -0.026274 -0.015837 -0.016981 -0.060156 -0.011444
#
#
# Mechanical properties :
#
#
# Convention : Reuss Voigt Hill
#
# Bulk Modulus (GPa) = 97.95922 -16.06218 40.94852
# Shear Modulus (GPa) = -19.59942 20.80626 0.60342
#
# Velocity S-wave (km/s) = -2.83232 2.91822 0.49697
# Velocity P-wave (km/s) = 5.42205 2.18642 4.13395
#
# Compressibility (1/GPa) = 0.01020833
#
# Stress axis : x y z
#
# Youngs Moduli (GPa) = -19.30587 -192.88011 -521.91331
#
# Poissons Ratio (x) = 5.89114 10.03781
# Poissons Ratio (y) = 0.58966 -7.94479
# Poissons Ratio (z) = 0.37130 -2.93610
#
# Static dielectric constant tensor:
#      x y z
#    x 1.830260 0.076820 -0.017400 
#    y 0.076820 2.009100 0.053260 
#    z -0.017400 0.053260 1.918480 
# 
# From -- ./inp_files/100554.got.cif
#   From: 2010.05.17/outbox.cif.g08.bks.cpg/sg2_51_cif.got.tgz:100554.got - 2010.06.03 11:33:40.
