data_PCOD9011218
_publ_section_title
;
Structure prediction by ZEFSAII (Michael W. Deem and Ramdas Pophale) SiO2 
 PCOD9011218
Probable space group: P -1
;
_chemical_formula_sum "Si O2"
_cell_formula_units_Z 16
_cell_length_a 18.841755
_cell_length_b 6.290119
_cell_length_c 11.420970
_cell_angle_alpha 104.805184
_cell_angle_beta 40.610280
_cell_angle_gamma 126.146383
_cell_volume 662.165204
_symmetry_space_group_name_H-M "P -1"
_symmetry_group_IT_number 2
_symmetry_cell_setting 'triclinic'
loop_
_space_group_symop_operation_xyz
x,y,z
-x,-y,-z
loop_
_atom_site_type_symbol
_atom_site_label
_atom_site_fract_x
_atom_site_fract_y
_atom_site_fract_z
Si Si1 0.872164 0.316369 0.963245
Si Si2 0.467173 0.810298 0.884743
Si Si3 0.800832 0.817870 0.834030
Si Si4 0.993626 0.679442 0.634027
Si Si5 0.597074 0.324007 0.663370
Si Si6 0.404813 0.361637 0.488381
Si Si7 0.704789 0.895414 0.724843
Si Si8 0.190176 0.733604 0.710154
O O1 0.895359 0.491419 0.841231
O O2 0.030809 0.496139 0.838143
O O3 0.809639 0.003203 0.955269
O O4 0.793239 0.301445 0.176444
O O5 0.521950 0.711199 0.703373
O O6 0.591627 0.943424 0.845684
O O7 0.467729 0.036656 0.843671
O O8 0.321134 0.520289 0.062960
O O9 0.939379 0.841742 0.672526
O O10 0.767530 0.925502 0.778009
O O11 0.000000 0.500000 0.500000
O O12 0.156193 0.901807 0.499878
O O13 0.586829 0.399667 0.556389
O O14 0.630451 0.575290 0.736212
O O15 0.722450 0.310613 0.492886
O O16 0.500000 0.500000 0.500000
O O17 0.254241 0.061341 0.663068
#
# Coordination Sequence:
#
# PCOD9011218 Si02
#       8
#     2   2   2   2   2   2   2   2
#     4  11  24  43  66  97 139 170 229 278 333 397
#     4  10  24  42  65 101 133 176 225 277 339 398
#     4  12  26  42  69 100 134 179 226 280 338 395
#     4  12  26  43  68 100 132 177 228 275 336 406
#     4  10  22  41  68  93 136 174 222 271 346 392
#     4  10  21  40  65  94 134 175 224 273 333 403
#     4  11  24  44  69  96 135 181 224 277 336 405
#     4  10  23  41  67  98 132 181 220 279 330 405
#
# _framework density 24.163153000000001
#
# number of rings (size 3 to 8) (size 9 to 14) (size 15 to 20)
#    0.000    1.250    1.250    4.500    3.500    7.500 
#    0.000    3.125    0.000    0.000    0.000    0.000 
#    0.000    0.000    0.000    0.000    0.000    0.000 
#
# Total GULP energy -89387.150439 kJ/mol
# GULP energy per Si atom -5586.696902 kJ/mol
# Density = 2.410816 g / cm^3
# Si number density = 24.163153 Si / 1000 Ang^3
#
#
#
# Elastic Constant Matrix: (Units=GPa)
#
#
# Indices 1 2 3 4 5 6 
#
# 1 127.7425 33.4142 24.2944 -6.2329 12.4273 -1.1064
# 2 33.4142 83.7359 9.9009 -29.2514 4.1376 -1.4573
# 3 24.2944 9.9009 69.2520 -19.7121 11.9368 -8.9956
# 4 -6.2329 -29.2514 -19.7121 52.4080 2.5237 -0.0276
# 5 12.4273 4.1376 11.9368 2.5237 47.8819 2.7471
# 6 -1.1064 -1.4573 -8.9956 -0.0276 2.7471 38.8452
#
#
#
# Elastic Compliance Matrix: (Units=1/GPa)
#
#
# Indices 1 2 3 4 5 6 
#
# 1 0.009548 -0.004214 -0.003313 -0.002408 -0.001128 -0.000575
# 2 -0.004214 0.016894 0.002282 0.009860 -0.001521 0.001157
# 3 -0.003313 0.002282 0.019082 0.008291 -0.004804 0.004756
# 4 -0.002408 0.009860 0.008291 0.027605 -0.003893 0.002516
# 5 -0.001128 -0.001521 -0.004804 -0.003893 0.022874 -0.002822
# 6 -0.000575 0.001157 0.004756 0.002516 -0.002822 0.027073
#
#
# Mechanical properties :
#
#
# Convention : Reuss Voigt Hill
#
# Bulk Modulus (GPa) = 28.54367 46.21658 37.38013
# Shear Modulus (GPa) = 34.42519 42.03509 38.23014
#
# Velocity S-wave (km/s) = 3.77861 4.17542 3.98196
# Velocity P-wave (km/s) = 5.55659 6.51260 6.05350
#
# Compressibility (1/GPa) = 0.03503404
#
# Stress axis : x y z
#
# Youngs Moduli (GPa) = 104.73626 59.19336 52.40621
#
# Poissons Ratio (x) = 0.24943 0.17361
# Poissons Ratio (y) = 0.44135 -0.11960
# Poissons Ratio (z) = 0.34698 -0.13509
#
# Static dielectric constant tensor:
#      x y z
#    x 1.979680 -0.028610 0.045120 
#    y -0.028610 1.980090 -0.040260 
#    z 0.045120 -0.040260 1.974340 
# 
# From -- ./inp_files/109740.got.cif
#   From: 2010.05.17/outbox.cif.g08.bks.cpg/sg2_55_cif.got.tgz:109740.got - 2010.06.03 11:33:40.
