data_PCOD9011021
_publ_section_title
;
Structure prediction by ZEFSAII (Michael W. Deem and Ramdas Pophale) SiO2 
 PCOD9011021
Probable space group: P -1
;
_chemical_formula_sum "Si O2"
_cell_formula_units_Z 16
_cell_length_a 5.048001
_cell_length_b 19.734525
_cell_length_c 9.105918
_cell_angle_alpha 51.943077
_cell_angle_beta 104.843315
_cell_angle_gamma 122.337748
_cell_volume 599.795621
_symmetry_space_group_name_H-M "P -1"
_symmetry_group_IT_number 2
_symmetry_cell_setting 'triclinic'
loop_
_space_group_symop_operation_xyz
x,y,z
-x,-y,-z
loop_
_atom_site_type_symbol
_atom_site_label
_atom_site_fract_x
_atom_site_fract_y
_atom_site_fract_z
Si Si1 0.282919 0.394966 0.532808
Si Si2 0.775011 0.042174 0.860383
Si Si3 0.470838 0.091379 0.269815
Si Si4 0.853952 0.560021 0.816695
Si Si5 0.199163 0.364880 0.997995
Si Si6 0.426510 0.723382 0.145339
Si Si7 0.197938 0.176329 0.325106
Si Si8 0.660072 0.757292 0.418972
O O1 0.500000 0.500000 0.500000
O O2 0.031747 0.410041 0.376725
O O3 0.509805 0.527349 0.128102
O O4 0.342159 0.323219 0.749366
O O5 0.003921 0.159608 0.714915
O O6 0.647889 0.998877 0.738394
O O7 0.500000 0.000000 0.000000
O O8 0.000000 0.000000 0.000000
O O9 0.291872 0.099717 0.373914
O O10 0.822659 0.125709 0.324162
O O11 0.455176 0.175340 0.057027
O O12 0.634052 0.650983 0.538345
O O13 0.918071 0.642338 0.840194
O O14 0.000000 0.500000 0.000000
O O15 0.914641 0.348271 0.873751
O O16 0.302077 0.280691 0.116553
O O17 0.397806 0.749060 0.277529
O O18 0.339119 0.206553 0.467182
#
# Coordination Sequence:
#
# PCOD9011021 Si02
#       8
#     2   2   2   2   2   2   2   2
#     4  10  21  40  65 104 147 190 257 309 376 442
#     4  12  25  49  79 114 150 198 254 315 384 455
#     4  11  25  45  77 110 150 200 253 308 385 458
#     4  11  23  39  65  99 140 201 247 311 379 441
#     4  10  22  40  68  95 142 196 252 306 375 456
#     4   9  21  44  69 104 141 197 252 311 376 445
#     4  11  25  46  72 113 153 196 250 314 383 459
#     4  10  24  46  74 108 153 198 249 321 383 448
#
# _framework density 26.675751999999999
#
# number of rings (size 3 to 8) (size 9 to 14) (size 15 to 20)
#    0.750    0.750    2.500    1.500    5.250    2.500 
#    2.250    1.250    0.000    0.000    0.000    0.000 
#    0.000    0.000    0.000    0.000    0.000    0.000 
#
# Total GULP energy -89317.151149 kJ/mol
# GULP energy per Si atom -5582.321947 kJ/mol
# Density = 2.661504 g / cm^3
# Si number density = 26.675752 Si / 1000 Ang^3
#
#
#
# Elastic Constant Matrix: (Units=GPa)
#
#
# Indices 1 2 3 4 5 6 
#
# 1 88.5811 53.9723 26.2882 -2.0975 0.0534 -6.9273
# 2 53.9723 206.5788 66.3326 31.0110 -0.1153 1.0087
# 3 26.2882 66.3326 153.8706 22.5774 6.8569 4.6656
# 4 -2.0975 31.0110 22.5774 70.1758 4.2382 5.9171
# 5 0.0534 -0.1153 6.8569 4.2382 32.5731 7.4133
# 6 -6.9273 1.0087 4.6656 5.9171 7.4133 39.4144
#
#
#
# Elastic Compliance Matrix: (Units=1/GPa)
#
#
# Indices 1 2 3 4 5 6 
#
# 1 0.014124 -0.003650 -0.001218 0.002255 -0.000643 0.002502
# 2 -0.003650 0.006805 -0.001970 -0.002503 0.000854 -0.000367
# 3 -0.001218 -0.001970 0.007863 -0.001565 -0.001317 -0.000612
# 4 0.002255 -0.002503 -0.001565 0.016141 -0.001440 -0.001507
# 5 -0.000643 0.000854 -0.001317 -0.001440 0.032506 -0.005877
# 6 0.002502 -0.000367 -0.000612 -0.001507 -0.005877 0.027225
#
#
# Mechanical properties :
#
#
# Convention : Reuss Voigt Hill
#
# Bulk Modulus (GPa) = 66.15007 82.46854 74.30930
# Shear Modulus (GPa) = 40.52610 48.59513 44.56062
#
# Velocity S-wave (km/s) = 3.90193 4.27276 4.09155
# Velocity P-wave (km/s) = 6.71951 7.43803 7.08788
#
# Compressibility (1/GPa) = 0.01511714
#
# Stress axis : x y z
#
# Youngs Moduli (GPa) = 70.80173 146.95241 127.18014
#
# Poissons Ratio (x) = 0.53641 0.15484
# Poissons Ratio (y) = 0.25844 0.25049
# Poissons Ratio (z) = 0.08620 0.28943
#
# Static dielectric constant tensor:
#      x y z
#    x 2.190030 -0.002340 -0.002800 
#    y -0.002340 2.095410 0.024170 
#    z -0.002800 0.024170 2.466470 
# 
# From -- ./inp_files/141163.got.cif
#   From: 2010.05.17/outbox.cif.g08.bks.cpg/sg2_71_cif.got.tgz:141163.got - 2010.06.03 11:33:40.
