data_PCOD9011825
_publ_section_title
;
Structure prediction by ZEFSAII (Michael W. Deem and Ramdas Pophale) SiO2 
 PCOD9011825
Probable space group: P -1
;
_chemical_formula_sum "Si O2"
_cell_formula_units_Z 14
_cell_length_a 13.892929
_cell_length_b 7.088045
_cell_length_c 16.928288
_cell_angle_alpha 43.247174
_cell_angle_beta 147.453868
_cell_angle_gamma 134.550399
_cell_volume 596.870948
_symmetry_space_group_name_H-M "P -1"
_symmetry_group_IT_number 2
_symmetry_cell_setting 'triclinic'
loop_
_space_group_symop_operation_xyz
x,y,z
-x,-y,-z
loop_
_atom_site_type_symbol
_atom_site_label
_atom_site_fract_x
_atom_site_fract_y
_atom_site_fract_z
Si Si1 0.676225 0.041797 0.553105
Si Si2 0.054786 0.247860 0.710826
Si Si3 0.355115 0.082977 0.075939
Si Si4 0.062871 0.218446 0.366578
Si Si5 0.703199 0.950069 0.277606
Si Si6 0.626697 0.423669 0.265667
Si Si7 0.308480 0.533610 0.317770
O O1 0.731709 0.742140 0.682383
O O2 0.500000 0.000000 0.500000
O O3 0.611899 0.145440 0.393464
O O4 0.872562 0.273217 0.624861
O O5 0.192047 0.515398 0.683110
O O6 0.982134 0.035541 0.652272
O O7 0.183524 0.117691 0.896371
O O8 0.520031 0.041309 0.146438
O O9 0.311556 0.809852 0.185646
O O10 0.446356 0.358120 0.107106
O O11 0.206370 0.157601 0.549359
O O12 0.160141 0.486837 0.299729
O O13 0.866308 0.193312 0.279191
O O14 0.649086 0.691134 0.257084
O O15 0.500000 0.500000 0.500000
#
# Coordination Sequence:
#
# PCOD9011825 Si02
#       7
#     2   2   2   2   2   2   2
#     4  11  23  41  67  95 124 169 223 270 314 386
#     4  10  24  43  65  96 132 173 214 267 334 376
#     4  12  23  42  67  94 139 172 207 270 328 391
#     4   9  20  38  61  93 122 163 222 259 309 379
#     4  10  21  40  67  95 124 169 224 266 315 382
#     4  11  23  42  67  95 132 171 220 264 318 388
#     4  11  20  40  65  92 126 172 213 260 329 379
#
# _framework density 23.455656000000001
#
# number of rings (size 3 to 8) (size 9 to 14) (size 15 to 20)
#    0.000    1.429    2.857    2.571    0.000    6.857 
#    0.000    3.571    0.000    0.000    0.000    0.000 
#    0.000    0.000    0.000    0.000    0.000    0.000 
#
# Total GULP energy -78304.929222 kJ/mol
# GULP energy per Si atom -5593.209230 kJ/mol
# Density = 2.340227 g / cm^3
# Si number density = 23.455656 Si / 1000 Ang^3
#
#
#
# Elastic Constant Matrix: (Units=GPa)
#
#
# Indices 1 2 3 4 5 6 
#
# 1 158.7424 57.5410 59.7304 -1.1393 -3.8572 43.1534
# 2 57.5410 100.2810 38.0042 -8.0508 -18.9802 13.7808
# 3 59.7304 38.0042 134.1198 2.3927 -6.0068 5.0531
# 4 -1.1393 -8.0508 2.3927 32.9228 6.5000 -17.7383
# 5 -3.8572 -18.9802 -6.0068 6.5000 23.3755 4.6310
# 6 43.1534 13.7808 5.0531 -17.7383 4.6310 56.8431
#
#
#
# Elastic Compliance Matrix: (Units=1/GPa)
#
#
# Indices 1 2 3 4 5 6 
#
# 1 0.011735 -0.004413 -0.003483 -0.005637 0.000880 -0.009360
# 2 -0.004413 0.015572 -0.001932 0.001130 0.011267 -0.000818
# 3 -0.003483 -0.001932 0.009462 -0.000023 -0.000157 0.002277
# 4 -0.005637 0.001130 -0.000023 0.043841 -0.015971 0.018989
# 5 0.000880 0.011267 -0.000157 -0.015971 0.059086 -0.013183
# 6 -0.009360 -0.000818 0.002277 0.018989 -0.013183 0.031694
#
#
# Mechanical properties :
#
#
# Convention : Reuss Voigt Hill
#
# Bulk Modulus (GPa) = 58.43461 78.18827 68.31144
# Shear Modulus (GPa) = 25.41265 38.48613 31.94939
#
# Velocity S-wave (km/s) = 3.29513 4.05508 3.69469
# Velocity P-wave (km/s) = 6.28045 7.43853 6.88389
#
# Compressibility (1/GPa) = 0.01711315
#
# Stress axis : x y z
#
# Youngs Moduli (GPa) = 85.21277 64.21687 105.68341
#
# Poissons Ratio (x) = 0.28342 0.36811
# Poissons Ratio (y) = 0.37608 0.20415
# Poissons Ratio (z) = 0.29681 0.12405
#
# Static dielectric constant tensor:
#      x y z
#    x 1.948870 -0.039250 -0.016260 
#    y -0.039250 1.997940 0.044260 
#    z -0.016260 0.044260 1.817700 
# 
# From -- ./inp_files/572831.got.cif
#   From: 2010.05.17/outbox.cif.g08.bks.cpg/sg2_287_cif.got.tgz:572831.got - 2010.06.03 11:33:40.
