data_PCOD9011052
_publ_section_title
;
Structure prediction by ZEFSAII (Michael W. Deem and Ramdas Pophale) SiO2 
 PCOD9011052
Probable space group: P -1
;
_chemical_formula_sum "Si O2"
_cell_formula_units_Z 16
_cell_length_a 16.085870
_cell_length_b 12.031543
_cell_length_c 14.920319
_cell_angle_alpha 152.150642
_cell_angle_beta 138.999809
_cell_angle_gamma 35.881100
_cell_volume 782.852549
_symmetry_space_group_name_H-M "P -1"
_symmetry_group_IT_number 2
_symmetry_cell_setting 'triclinic'
loop_
_space_group_symop_operation_xyz
x,y,z
-x,-y,-z
loop_
_atom_site_type_symbol
_atom_site_label
_atom_site_fract_x
_atom_site_fract_y
_atom_site_fract_z
Si Si1 0.427537 0.671261 0.697456
Si Si2 0.009642 0.795780 0.993440
Si Si3 0.736417 0.097053 0.105215
Si Si4 0.971426 0.354925 0.287833
Si Si5 0.693288 0.332585 0.797415
Si Si6 0.525374 0.616447 0.195569
Si Si7 0.486175 0.125459 0.257592
Si Si8 0.323246 0.168237 0.637138
O O1 0.287214 0.818619 0.749741
O O2 0.567420 0.558245 0.795741
O O3 0.434970 0.407684 0.468623
O O4 0.445730 0.849622 0.762296
O O5 0.168888 0.626403 0.042560
O O6 0.890431 0.911086 0.055772
O O7 0.014965 0.057451 0.143926
O O8 0.968581 0.668745 0.782579
O O9 0.656997 0.378908 0.186911
O O10 0.643491 0.940426 0.906398
O O11 0.803227 0.532939 0.259706
O O12 0.000000 0.500000 0.500000
O O13 0.614405 0.308010 0.804986
O O14 0.735038 0.047027 0.579222
O O15 0.564346 0.847285 0.358515
O O16 0.500000 0.500000 0.000000
O O17 0.599701 0.899567 0.253476
#
# Coordination Sequence:
#
# PCOD9011052 Si02
#       8
#     2   2   2   2   2   2   2   2
#     4   9  22  42  65  87 116 151 204 253 292 343
#     4  11  24  38  57  86 126 159 194 240 294 359
#     4  11  22  37  61  89 117 159 193 246 297 352
#     4  11  23  38  56  84 127 166 193 230 298 363
#     4  10  22  38  59  87 119 159 197 241 296 355
#     4  11  20  33  55  88 122 144 196 246 291 351
#     4  10  21  40  65  89 116 151 202 252 295 342
#     4  11  20  36  62  89 115 160 197 243 298 351
#
# _framework density 20.438077
#
# number of rings (size 3 to 8) (size 9 to 14) (size 15 to 20)
#    0.000    1.500    3.750    1.500    3.500    1.000 
#    2.250    0.625    0.000    2.250    0.000    0.000 
#    0.000    0.000    0.000    0.000    0.000    0.000 
#
# Total GULP energy -89291.071391 kJ/mol
# GULP energy per Si atom -5580.691962 kJ/mol
# Density = 2.039156 g / cm^3
# Si number density = 20.438077 Si / 1000 Ang^3
#
#
#
# Elastic Constant Matrix: (Units=GPa)
#
#
# Indices 1 2 3 4 5 6 
#
# 1 146.2656 37.5743 18.4342 -9.9568 -21.3710 5.2075
# 2 37.5743 39.2401 -3.7977 5.0354 -0.6742 3.3363
# 3 18.4342 -3.7977 69.1530 -4.0031 -11.7955 6.4075
# 4 -9.9568 5.0354 -4.0031 12.6791 4.6977 -0.8502
# 5 -21.3710 -0.6742 -11.7955 4.6977 33.1127 5.6507
# 6 5.2075 3.3363 6.4075 -0.8502 5.6507 33.1152
#
#
#
# Elastic Compliance Matrix: (Units=1/GPa)
#
#
# Indices 1 2 3 4 5 6 
#
# 1 0.012131 -0.013248 -0.002321 0.012107 0.005133 -0.000689
# 2 -0.013248 0.042073 0.004346 -0.025219 -0.002004 -0.003302
# 3 -0.002321 0.004346 0.016577 -0.000557 0.005291 -0.004198
# 4 0.012107 -0.025219 -0.000557 0.101540 -0.008111 0.004736
# 5 0.005133 -0.002004 0.005291 -0.008111 0.037925 -0.008309
# 6 -0.000689 -0.003302 -0.004198 0.004736 -0.008309 0.032990
#
#
# Mechanical properties :
#
#
# Convention : Reuss Voigt Hill
#
# Bulk Modulus (GPa) = 20.68863 39.89780 30.29322
# Shear Modulus (GPa) = 17.74348 29.27793 23.51071
#
# Velocity S-wave (km/s) = 2.94965 3.78897 3.39534
# Velocity P-wave (km/s) = 4.66317 6.22137 5.49775
#
# Compressibility (1/GPa) = 0.04833573
#
# Stress axis : x y z
#
# Youngs Moduli (GPa) = 82.43117 23.76848 60.32341
#
# Poissons Ratio (x) = 0.31488 0.14002
# Poissons Ratio (y) = 1.09203 -0.26218
# Poissons Ratio (z) = 0.19134 -0.10330
#
# Static dielectric constant tensor:
#      x y z
#    x 1.743770 -0.002680 -0.042190 
#    y -0.002680 1.723680 0.000570 
#    z -0.042190 0.000570 1.810640 
# 
# From -- ./inp_files/405458.got.cif
#   From: 2010.05.17/outbox.cif.g08.bks.cpg/sg2_203_cif.got.tgz:405458.got - 2010.06.03 11:33:40.
