data_PCOD9011883
_publ_section_title
;
Structure prediction by ZEFSAII (Michael W. Deem and Ramdas Pophale) SiO2 
 PCOD9011883
Probable space group: P -1
;
_chemical_formula_sum "Si O2"
_cell_formula_units_Z 12
_cell_length_a 11.175869
_cell_length_b 8.972302
_cell_length_c 5.456770
_cell_angle_alpha 108.515712
_cell_angle_beta 64.044764
_cell_angle_gamma 124.481525
_cell_volume 403.740899
_symmetry_space_group_name_H-M "P -1"
_symmetry_group_IT_number 2
_symmetry_cell_setting 'triclinic'
loop_
_space_group_symop_operation_xyz
x,y,z
-x,-y,-z
loop_
_atom_site_type_symbol
_atom_site_label
_atom_site_fract_x
_atom_site_fract_y
_atom_site_fract_z
Si Si1 0.348045 0.289940 0.251503
Si Si2 0.219469 0.500118 0.249222
Si Si3 0.904545 0.263178 0.648688
Si Si4 0.554267 0.172924 0.220128
Si Si5 0.281024 0.980040 0.749490
Si Si6 0.078288 0.170667 0.831170
O O1 0.346888 0.471301 0.260025
O O2 0.510737 0.315625 0.212585
O O3 0.211130 0.201747 0.531993
O O4 0.430855 0.098650 0.511836
O O5 0.222783 0.672316 0.207950
O O6 0.075279 0.431055 0.530535
O O7 0.158887 0.349265 0.015467
O O8 0.847920 0.129199 0.398523
O O9 0.942916 0.173699 0.796312
O O10 0.699315 0.180473 0.227297
O O11 0.500000 0.000000 0.000000
O O12 0.297805 0.138942 0.002528
O O13 0.000000 0.000000 0.000000
#
# Coordination Sequence:
#
# PCOD9011883 Si02
#       6
#     2   2   2   2   2   2
#     4  10  22  40  67  96 131 169 217 279 319 390
#     4  10  23  41  62  96 133 175 215 262 336 390
#     4  10  24  43  63  93 137 174 211 271 333 396
#     4   9  20  38  63  99 129 163 217 279 327 381
#     4  10  21  40  67  97 129 169 222 273 332 380
#     4  11  25  39  65  99 131 176 224 266 321 390
#
# _framework density 29.722031999999999
#
# number of rings (size 3 to 8) (size 9 to 14) (size 15 to 20)
#    0.000    2.000    0.000    1.500    7.000    4.667 
#    0.000    0.833    0.000   14.000    0.000    0.000 
#    0.000    0.000    0.000    0.000    0.000    0.000 
#
# Total GULP energy -67130.247888 kJ/mol
# GULP energy per Si atom -5594.187324 kJ/mol
# Density = 2.965438 g / cm^3
# Si number density = 29.722032 Si / 1000 Ang^3
#
#
#
# Elastic Constant Matrix: (Units=GPa)
#
#
# Indices 1 2 3 4 5 6 
#
# 1 224.7810 61.3464 47.1153 5.5583 14.5296 -82.7240
# 2 61.3464 178.8980 67.8448 -26.8573 19.7990 -55.0777
# 3 47.1153 67.8448 159.9216 4.7630 -2.6341 -23.5795
# 4 5.5583 -26.8573 4.7630 58.0170 -19.3867 16.2421
# 5 14.5296 19.7990 -2.6341 -19.3867 63.0673 2.4334
# 6 -82.7240 -55.0777 -23.5795 16.2421 2.4334 83.8740
#
#
#
# Elastic Compliance Matrix: (Units=1/GPa)
#
#
# Indices 1 2 3 4 5 6 
#
# 1 0.008250 0.000040 -0.001078 -0.004366 -0.003640 0.008811
# 2 0.000040 0.008781 -0.003173 0.002253 -0.002381 0.004546
# 3 -0.001078 -0.003173 0.007877 -0.001432 0.001160 -0.000689
# 4 -0.004366 0.002253 -0.001432 0.023683 0.007829 -0.008043
# 5 -0.003640 -0.002381 0.001160 0.007829 0.020165 -0.006929
# 6 0.008811 0.004546 -0.000689 -0.008043 -0.006929 0.025163
#
#
# Mechanical properties :
#
#
# Convention : Reuss Voigt Hill
#
# Bulk Modulus (GPa) = 60.66067 101.80151 81.23109
# Shear Modulus (GPa) = 46.36672 66.81124 56.58898
#
# Velocity S-wave (km/s) = 3.95398 4.74631 4.36815
# Velocity P-wave (km/s) = 6.42643 8.02261 7.26846
#
# Compressibility (1/GPa) = 0.01648515
#
# Stress axis : x y z
#
# Youngs Moduli (GPa) = 121.21554 113.88461 126.95237
#
# Poissons Ratio (x) = -0.00455 0.13689
# Poissons Ratio (y) = -0.00485 0.40281
# Poissons Ratio (z) = 0.13070 0.36135
#
# Static dielectric constant tensor:
#      x y z
#    x 2.580220 -0.082000 -0.133880 
#    y -0.082000 2.318310 -0.197430 
#    z -0.133880 -0.197430 2.462100 
# 
# From -- ./inp_files/61011.got.cif
#   From: 2010.05.17/outbox.cif.g08.bks.cpg/sg2_31_cif.got.tgz:61011.got - 2010.06.03 11:33:40.
