data_PCOD9011999
_publ_section_title
;
Structure prediction by ZEFSAII (Michael W. Deem and Ramdas Pophale) SiO2 
 PCOD9011999
Probable space group: P -1
;
_chemical_formula_sum "Si O2"
_cell_formula_units_Z 12
_cell_length_a 10.914698
_cell_length_b 9.568481
_cell_length_c 8.119502
_cell_angle_alpha 61.139085
_cell_angle_beta 125.414978
_cell_angle_gamma 141.595395
_cell_volume 428.623077
_symmetry_space_group_name_H-M "P -1"
_symmetry_group_IT_number 2
_symmetry_cell_setting 'triclinic'
loop_
_space_group_symop_operation_xyz
x,y,z
-x,-y,-z
loop_
_atom_site_type_symbol
_atom_site_label
_atom_site_fract_x
_atom_site_fract_y
_atom_site_fract_z
Si Si1 0.472726 0.971139 0.689961
Si Si2 0.753771 0.703745 0.266142
Si Si3 0.250808 0.255496 0.128920
Si Si4 0.887653 0.212847 0.981593
Si Si5 0.017377 0.609326 0.675986
Si Si6 0.372304 0.234299 0.559148
O O1 0.497629 0.161882 0.696112
O O2 0.644203 0.976948 0.895194
O O3 0.500000 0.000000 0.500000
O O4 0.232661 0.738311 0.672172
O O5 0.502223 0.479211 0.183801
O O6 0.769421 0.845561 0.344229
O O7 0.874633 0.636617 0.462090
O O8 0.826574 0.816199 0.078721
O O9 0.248638 0.127099 0.350090
O O10 0.105810 0.285763 0.072808
O O11 0.894530 0.357109 0.766711
O O12 0.909245 0.282133 0.146447
O O13 0.500000 0.500000 0.500000
#
# Coordination Sequence:
#
# PCOD9011999 Si02
#       6
#     2   2   2   2   2   2
#     4  12  28  48  72 111 151 193 249 307 365 447
#     4  10  21  40  68 105 134 188 243 295 360 426
#     4  10  21  40  72 106 138 188 245 298 359 440
#     4  11  24  46  73 105 150 198 245 300 374 443
#     4  11  25  45  75 104 148 200 245 302 370 442
#     4  10  22  45  72 101 145 189 238 301 364 432
#
# _framework density 27.996625999999999
#
# number of rings (size 3 to 8) (size 9 to 14) (size 15 to 20)
#    0.000    1.333    1.667    3.500    7.000    7.333 
#    3.000    1.667    0.000    0.000    0.000    0.000 
#    0.000    0.000    0.000    0.000    0.000    0.000 
#
# Total GULP energy -67223.621496 kJ/mol
# GULP energy per Si atom -5601.968458 kJ/mol
# Density = 2.793290 g / cm^3
# Si number density = 27.996626 Si / 1000 Ang^3
#
#
#
# Elastic Constant Matrix: (Units=GPa)
#
#
# Indices 1 2 3 4 5 6 
#
# 1 149.3273 5.1896 79.9691 2.0428 -18.1347 40.5559
# 2 5.1896 76.2005 17.7419 17.6369 8.2617 5.0613
# 3 79.9691 17.7419 194.1712 17.0561 -11.2203 26.1245
# 4 2.0428 17.6369 17.0561 51.8332 9.8496 13.7062
# 5 -18.1347 8.2617 -11.2203 9.8496 84.1532 -1.9692
# 6 40.5559 5.0613 26.1245 13.7062 -1.9692 43.5401
#
#
#
# Elastic Compliance Matrix: (Units=1/GPa)
#
#
# Indices 1 2 3 4 5 6 
#
# 1 0.011224 -0.000161 -0.003552 0.002938 0.001403 -0.009167
# 2 -0.000161 0.014493 -0.000979 -0.004516 -0.001049 0.000427
# 3 -0.003552 -0.000979 0.006908 -0.001858 0.000467 -0.000117
# 4 0.002938 -0.004516 -0.001858 0.024061 -0.002192 -0.008771
# 5 0.001403 -0.001049 0.000467 -0.002192 0.012602 -0.000204
# 6 -0.009167 0.000427 -0.000117 -0.008771 -0.000204 0.034278
#
#
# Mechanical properties :
#
#
# Convention : Reuss Voigt Hill
#
# Bulk Modulus (GPa) = 43.02649 69.50002 56.26325
# Shear Modulus (GPa) = 41.42600 57.02520 49.22560
#
# Velocity S-wave (km/s) = 3.85083 4.51805 4.19772
# Velocity P-wave (km/s) = 5.93074 7.21771 6.60565
#
# Compressibility (1/GPa) = 0.02324150
#
# Stress axis : x y z
#
# Youngs Moduli (GPa) = 89.09491 68.99882 144.75519
#
# Poissons Ratio (x) = 0.01109 0.51412
# Poissons Ratio (y) = 0.01433 0.14178
# Poissons Ratio (z) = 0.31643 0.06758
#
# Static dielectric constant tensor:
#      x y z
#    x 2.182120 0.000890 -0.005090 
#    y 0.000890 2.385650 0.020870 
#    z -0.005090 0.020870 2.140750 
# 
# From -- ./inp_files/262203.got.cif
#   From: 2010.05.17/outbox.cif.g08.bks.cpg/sg2_132_cif.got.tgz:262203.got - 2010.06.03 11:33:40.
