data_PCOD9011032
_publ_section_title
;
Structure prediction by ZEFSAII (Michael W. Deem and Ramdas Pophale) SiO2 
 PCOD9011032
Probable space group: P -1
;
_chemical_formula_sum "Si O2"
_cell_formula_units_Z 16
_cell_length_a 14.800154
_cell_length_b 13.706806
_cell_length_c 11.581679
_cell_angle_alpha 29.901288
_cell_angle_beta 108.278445
_cell_angle_gamma 129.978457
_cell_volume 691.843973
_symmetry_space_group_name_H-M "P -1"
_symmetry_group_IT_number 2
_symmetry_cell_setting 'triclinic'
loop_
_space_group_symop_operation_xyz
x,y,z
-x,-y,-z
loop_
_atom_site_type_symbol
_atom_site_label
_atom_site_fract_x
_atom_site_fract_y
_atom_site_fract_z
Si Si1 0.575412 0.437919 0.033456
Si Si2 0.177978 0.622419 0.209875
Si Si3 0.285622 0.707020 0.666903
Si Si4 0.818895 0.893139 0.480670
Si Si5 0.103641 0.686128 0.465380
Si Si6 0.858496 0.488431 0.946889
Si Si7 0.363159 0.172006 0.907215
Si Si8 0.325931 0.440256 0.449202
O O1 0.685254 0.477604 0.116631
O O2 0.443095 0.069328 0.324274
O O3 0.500000 0.500000 0.000000
O O4 0.672626 0.686169 0.714131
O O5 0.196925 0.694747 0.006907
O O6 0.249771 0.523429 0.359085
O O7 0.998352 0.351996 0.448079
O O8 0.266096 0.898963 0.052179
O O9 0.154200 0.565658 0.671291
O O10 0.236668 0.704175 0.777831
O O11 0.844099 0.699296 0.701869
O O12 0.793470 0.874830 0.352958
O O13 0.962288 0.240117 0.231555
O O14 0.000000 0.500000 0.500000
O O15 0.263927 0.027314 0.131368
O O16 0.379864 0.414833 0.611034
O O17 0.523749 0.316706 0.821434
#
# Coordination Sequence:
#
# PCOD9011032 Si02
#       8
#     2   2   2   2   2   2   2   2
#     4  10  22  40  62  94 125 165 208 254 322 386
#     4  10  22  40  63  93 121 162 215 259 311 382
#     4  10  22  42  64  89 130 167 204 263 320 369
#     4   9  19  37  60  93 125 156 201 266 318 367
#     4  10  23  41  61  91 129 167 207 258 311 371
#     4   9  20  37  64  92 121 159 204 261 320 373
#     4  10  22  41  62  89 124 169 212 260 310 368
#     4  10  21  40  65  86 123 167 213 261 311 369
#
# _framework density 23.126601000000001
#
# number of rings (size 3 to 8) (size 9 to 14) (size 15 to 20)
#    0.000    2.250    0.000    1.125    5.250    3.000 
#    0.000    7.500    0.000    0.000    0.000    0.000 
#    0.000    0.000    0.000    0.000    0.000    0.000 
#
# Total GULP energy -89329.991736 kJ/mol
# GULP energy per Si atom -5583.124483 kJ/mol
# Density = 2.307396 g / cm^3
# Si number density = 23.126601 Si / 1000 Ang^3
#
#
#
# Elastic Constant Matrix: (Units=GPa)
#
#
# Indices 1 2 3 4 5 6 
#
# 1 145.6132 26.3505 36.2340 20.3477 -6.4602 28.6250
# 2 26.3505 74.8034 1.7872 15.2049 3.2272 16.4179
# 3 36.2340 1.7872 52.9954 6.5614 -16.4229 6.6537
# 4 20.3477 15.2049 6.5614 33.9651 3.2967 5.4985
# 5 -6.4602 3.2272 -16.4229 3.2967 42.5068 0.6243
# 6 28.6250 16.4179 6.6537 5.4985 0.6243 23.7809
#
#
#
# Elastic Compliance Matrix: (Units=1/GPa)
#
#
# Indices 1 2 3 4 5 6 
#
# 1 0.010923 -0.000769 -0.005765 -0.003423 -0.000094 -0.010209
# 2 -0.000769 0.016982 0.001915 -0.005891 -0.000063 -0.009970
# 3 -0.005765 0.001915 0.026195 -0.003174 0.009363 -0.001223
# 4 -0.003423 -0.005891 -0.003174 0.034956 -0.004027 0.001100
# 5 -0.000094 -0.000063 0.009363 -0.004027 0.027479 -0.002254
# 6 -0.010209 -0.009970 -0.001223 0.001100 -0.002254 0.061370
#
#
# Mechanical properties :
#
#
# Convention : Reuss Voigt Hill
#
# Bulk Modulus (GPa) = 22.29149 44.68396 33.48772
# Shear Modulus (GPa) = 24.74048 33.98657 29.36353
#
# Velocity S-wave (km/s) = 3.27430 3.83768 3.56713
# Velocity P-wave (km/s) = 4.89434 6.24503 5.61048
#
# Compressibility (1/GPa) = 0.04486018
#
# Stress axis : x y z
#
# Youngs Moduli (GPa) = 91.55365 58.88581 38.17501
#
# Poissons Ratio (x) = 0.04530 0.22009
# Poissons Ratio (y) = 0.07042 -0.07310
# Poissons Ratio (z) = 0.52784 -0.11276
#
# Static dielectric constant tensor:
#      x y z
#    x 1.889570 0.057570 0.006880 
#    y 0.057570 1.910600 0.013290 
#    z 0.006880 0.013290 1.903920 
# 
# From -- ./inp_files/455398.got.cif
#   From: 2010.05.17/outbox.cif.g08.bks.cpg/sg2_228_cif.got.tgz:455398.got - 2010.06.03 11:33:40.
