data_PCOD9011284
_publ_section_title
;
Structure prediction by ZEFSAII (Michael W. Deem and Ramdas Pophale) SiO2 
 PCOD9011284
Probable space group: P -1
;
_chemical_formula_sum "Si O2"
_cell_formula_units_Z 16
_cell_length_a 7.801525
_cell_length_b 14.303293
_cell_length_c 10.502389
_cell_angle_alpha 120.009392
_cell_angle_beta 117.618251
_cell_angle_gamma 39.332117
_cell_volume 636.897785
_symmetry_space_group_name_H-M "P -1"
_symmetry_group_IT_number 2
_symmetry_cell_setting 'triclinic'
loop_
_space_group_symop_operation_xyz
x,y,z
-x,-y,-z
loop_
_atom_site_type_symbol
_atom_site_label
_atom_site_fract_x
_atom_site_fract_y
_atom_site_fract_z
Si Si1 0.293289 0.957197 0.700828
Si Si2 0.861891 0.448175 0.364029
Si Si3 0.970413 0.037676 0.867480
Si Si4 0.687894 0.252641 0.595452
Si Si5 0.446143 0.129197 0.788444
Si Si6 0.291472 0.379677 0.091585
Si Si7 0.712002 0.355606 0.063526
Si Si8 0.894227 0.380201 0.611784
O O1 0.447702 0.006894 0.758721
O O2 0.242548 0.926750 0.802033
O O3 0.977837 0.107187 0.655210
O O4 0.404887 0.816974 0.558661
O O5 0.570404 0.606782 0.318463
O O6 0.937580 0.341548 0.200739
O O7 0.866005 0.380909 0.451422
O O8 0.000000 0.500000 0.500000
O O9 0.722068 0.055449 0.759386
O O10 0.866018 0.201355 0.936854
O O11 0.000000 0.000000 0.000000
O O12 0.740898 0.336562 0.585057
O O13 0.198845 0.246584 0.683958
O O14 0.392008 0.226138 0.960067
O O15 0.520668 0.372048 0.112793
O O16 0.220149 0.460571 0.260982
O O17 0.000000 0.500000 0.000000
O O18 0.500000 0.500000 0.000000
#
# Coordination Sequence:
#
# PCOD9011284 Si02
#       8
#     2   2   2   2   2   2   2   2
#     4  10  23  44  70  90 135 184 231 273 341 424
#     4  12  27  38  66 105 141 171 227 293 350 407
#     4  11  26  42  69  99 137 179 231 286 347 406
#     4  10  22  43  65  94 130 186 220 275 350 413
#     4   9  22  42  67 100 127 181 232 275 347 417
#     4   9  19  36  67  93 124 169 225 275 339 400
#     4  11  25  43  67  96 138 178 225 286 346 417
#     4  10  21  40  65  96 131 174 220 287 347 399
#
# _framework density 25.121769
#
# number of rings (size 3 to 8) (size 9 to 14) (size 15 to 20)
#    0.000    1.750    1.250    1.125   12.250    2.500 
#    0.000    1.875    0.000    0.000    0.000    0.000 
#    0.000    0.000    0.000    0.000    0.000    0.000 
#
# Total GULP energy -89332.336751 kJ/mol
# GULP energy per Si atom -5583.271047 kJ/mol
# Density = 2.506459 g / cm^3
# Si number density = 25.121769 Si / 1000 Ang^3
#
#
#
# Elastic Constant Matrix: (Units=GPa)
#
#
# Indices 1 2 3 4 5 6 
#
# 1 44.1937 -5.3504 37.6667 12.8223 18.7843 2.7333
# 2 -5.3504 64.4996 32.8214 -3.0248 1.2641 0.9660
# 3 37.6667 32.8214 137.6064 12.5653 15.7534 29.0533
# 4 12.8223 -3.0248 12.5653 34.5575 1.5694 2.5888
# 5 18.7843 1.2641 15.7534 1.5694 42.9330 1.2556
# 6 2.7333 0.9660 29.0533 2.5888 1.2556 21.1915
#
#
#
# Elastic Compliance Matrix: (Units=1/GPa)
#
#
# Indices 1 2 3 4 5 6 
#
# 1 0.046842 0.012033 -0.017003 -0.010892 -0.014765 0.018926
# 2 0.012033 0.021977 -0.010985 0.000615 -0.002271 0.012566
# 3 -0.017003 -0.010985 0.019474 0.000011 0.001321 -0.024085
# 4 -0.010892 0.000615 0.000011 0.033081 0.003619 -0.002893
# 5 -0.014765 -0.002271 0.001321 0.003619 0.029260 -0.001979
# 6 0.018926 0.012566 -0.024085 -0.002893 -0.001979 0.077666
#
#
# Mechanical properties :
#
#
# Convention : Reuss Voigt Hill
#
# Bulk Modulus (GPa) = 17.73576 41.84168 29.78872
# Shear Modulus (GPa) = 17.92089 31.81385 24.86737
#
# Velocity S-wave (km/s) = 2.67378 3.56249 3.14964
# Velocity P-wave (km/s) = 4.07521 5.79772 5.01103
#
# Compressibility (1/GPa) = 0.05638327
#
# Stress axis : x y z
#
# Youngs Moduli (GPa) = 21.34850 45.50202 51.34974
#
# Poissons Ratio (x) = -0.54752 0.87310
# Poissons Ratio (y) = -0.25689 0.56407
# Poissons Ratio (z) = 0.36299 0.49983
#
# Static dielectric constant tensor:
#      x y z
#    x 2.052490 -0.004340 0.003970 
#    y -0.004340 2.161690 -0.068630 
#    z 0.003970 -0.068630 1.989160 
# 
# From -- ./inp_files/209273.got.cif
#   From: 2010.05.17/outbox.cif.g08.bks.cpg/sg2_105_cif.got.tgz:209273.got - 2010.06.03 11:33:40.
