data_PCOD9011082
_publ_section_title
;
Structure prediction by ZEFSAII (Michael W. Deem and Ramdas Pophale) SiO2 
 PCOD9011082
Probable space group: P -1
;
_chemical_formula_sum "Si O2"
_cell_formula_units_Z 14
_cell_length_a 10.725756
_cell_length_b 11.436062
_cell_length_c 26.994879
_cell_angle_alpha 27.878327
_cell_angle_beta 153.481796
_cell_angle_gamma 146.730339
_cell_volume 674.928493
_symmetry_space_group_name_H-M "P -1"
_symmetry_group_IT_number 2
_symmetry_cell_setting 'triclinic'
loop_
_space_group_symop_operation_xyz
x,y,z
-x,-y,-z
loop_
_atom_site_type_symbol
_atom_site_label
_atom_site_fract_x
_atom_site_fract_y
_atom_site_fract_z
Si Si1 0.594555 0.251223 0.997310
Si Si2 0.140869 0.240696 0.426060
Si Si3 0.280307 0.358971 0.016899
Si Si4 0.337860 0.004622 0.717464
Si Si5 0.647283 0.164515 0.866356
Si Si6 0.232133 0.541693 0.439100
Si Si7 0.696725 0.721225 0.216916
O O1 0.724871 0.467643 0.001448
O O2 0.490610 0.348967 0.872853
O O3 0.330538 0.066344 0.001676
O O4 0.774692 0.034461 0.130027
O O5 0.139811 0.482742 0.370881
O O6 0.472638 0.250496 0.530629
O O7 0.000000 0.000000 0.500000
O O8 0.949275 0.198049 0.324800
O O9 0.405568 0.113324 0.168700
O O10 0.500000 0.500000 0.000000
O O11 0.957294 0.279654 0.912263
O O12 0.418165 0.044704 0.788419
O O13 0.310317 0.280507 0.584657
O O14 0.503798 0.351181 0.779236
O O15 0.975873 0.609774 0.353171
#
# Coordination Sequence:
#
# PCOD9011082 Si02
#       7
#     2   2   2   2   2   2   2
#     4   9  21  41  62  90 122 160 211 251 301 371
#     4   9  21  40  59  96 118 167 205 244 310 363
#     4  12  23  38  64  91 124 162 209 259 308 363
#     4  11  23  37  62  92 125 159 207 252 320 357
#     4  10  23  40  60  94 123 163 204 256 312 365
#     4  10  21  40  65  90 130 157 202 263 301 373
#     4   9  20  45  62  88 126 162 205 251 311 366
#
# _framework density 20.742937999999999
#
# number of rings (size 3 to 8) (size 9 to 14) (size 15 to 20)
#    0.857    1.143    1.429    1.286    2.000    4.571 
#    5.143    0.714    0.000    0.000    0.000    0.000 
#    0.000    0.000    0.000    0.000    0.000    0.000 
#
# Total GULP energy -77984.210388 kJ/mol
# GULP energy per Si atom -5570.300742 kJ/mol
# Density = 2.069573 g / cm^3
# Si number density = 20.742938 Si / 1000 Ang^3
#
#
#
# Elastic Constant Matrix: (Units=GPa)
#
#
# Indices 1 2 3 4 5 6 
#
# 1 71.1989 43.3937 45.8490 24.4691 4.9322 -17.2232
# 2 43.3937 70.0078 52.5105 23.1661 1.1057 -11.1351
# 3 45.8490 52.5105 107.4074 5.2848 22.5499 -4.0399
# 4 24.4691 23.1661 5.2848 41.3526 -3.3738 -3.7515
# 5 4.9322 1.1057 22.5499 -3.3738 31.8571 10.6264
# 6 -17.2232 -11.1351 -4.0399 -3.7515 10.6264 36.0534
#
#
#
# Elastic Compliance Matrix: (Units=1/GPa)
#
#
# Indices 1 2 3 4 5 6 
#
# 1 0.030789 -0.007381 -0.007583 -0.012418 -0.004314 0.011558
# 2 -0.007381 0.033769 -0.014491 -0.011868 0.008453 0.001554
# 3 -0.007583 -0.014491 0.021778 0.008708 -0.012456 -0.001081
# 4 -0.012418 -0.011868 0.008708 0.036732 0.001843 -0.005343
# 5 -0.004314 0.008453 -0.012456 0.001843 0.045465 -0.014054
# 6 0.011558 0.001554 -0.001081 -0.005343 -0.014054 0.037203
#
#
# Mechanical properties :
#
#
# Convention : Reuss Voigt Hill
#
# Bulk Modulus (GPa) = 36.46157 59.12449 47.79303
# Shear Modulus (GPa) = 18.26231 28.97669 23.61950
#
# Velocity S-wave (km/s) = 2.97039 3.74162 3.37809
# Velocity P-wave (km/s) = 5.42036 6.87253 6.18918
#
# Compressibility (1/GPa) = 0.02742614
#
# Stress axis : x y z
#
# Youngs Moduli (GPa) = 32.47871 29.61301 45.91804
#
# Poissons Ratio (x) = 0.21856 0.34821
# Poissons Ratio (y) = 0.23972 0.66540
# Poissons Ratio (z) = 0.24630 0.42912
#
# Static dielectric constant tensor:
#      x y z
#    x 1.777840 -0.000140 -0.038520 
#    y -0.000140 1.784980 -0.014550 
#    z -0.038520 -0.014550 1.770930 
# 
# From -- ./inp_files/623065.got.cif
#   From: 2010.05.17/outbox.cif.g08.bks.cpg/sg2_312_cif.got.tgz:623065.got - 2010.06.03 11:33:40.
