data_PCOD9011948
_publ_section_title
;
Structure prediction by ZEFSAII (Michael W. Deem and Ramdas Pophale) SiO2 
 PCOD9011948
Probable space group: P -1
;
_chemical_formula_sum "Si O2"
_cell_formula_units_Z 14
_cell_length_a 6.883642
_cell_length_b 12.094730
_cell_length_c 11.239876
_cell_angle_alpha 46.026892
_cell_angle_beta 54.987629
_cell_angle_gamma 56.058839
_cell_volume 530.873311
_symmetry_space_group_name_H-M "P -1"
_symmetry_group_IT_number 2
_symmetry_cell_setting 'triclinic'
loop_
_space_group_symop_operation_xyz
x,y,z
-x,-y,-z
loop_
_atom_site_type_symbol
_atom_site_label
_atom_site_fract_x
_atom_site_fract_y
_atom_site_fract_z
Si Si1 0.587259 0.467546 0.858888
Si Si2 0.174669 0.379430 0.905519
Si Si3 0.391605 0.129180 0.809981
Si Si4 0.161258 0.334448 0.520044
Si Si5 0.954473 0.087416 0.654184
Si Si6 0.118444 0.267603 0.253515
Si Si7 0.705846 0.133731 0.111081
O O1 0.390444 0.433926 0.859092
O O2 0.665338 0.619242 0.672917
O O3 0.996541 0.548600 0.797621
O O4 0.500000 0.500000 0.000000
O O5 0.288287 0.248340 0.865300
O O6 0.050918 0.298372 0.114034
O O7 0.783160 0.292232 0.927860
O O8 0.336339 0.235570 0.632008
O O9 0.684505 0.063742 0.770774
O O10 0.279074 0.983774 0.920048
O O11 0.000000 0.500000 0.500000
O O12 0.974786 0.241211 0.606831
O O13 0.982153 0.856670 0.541216
O O14 0.150747 0.951039 0.760243
O O15 0.414576 0.194187 0.200993
#
# Coordination Sequence:
#
# PCOD9011948 Si02
#       7
#     2   2   2   2   2   2   2
#     4  11  24  44  70 102 140 185 238 290 347 417
#     4  10  22  42  69 103 140 185 236 294 354 417
#     4  11  25  46  73 107 146 185 236 293 359 428
#     4  11  23  42  71 102 137 184 235 290 347 413
#     4  11  23  44  72 104 144 187 235 294 355 421
#     4  10  21  40  68 100 137 182 237 288 345 416
#     4  10  25  46  73 106 143 190 235 290 359 424
#
# _framework density 26.371642000000001
#
# number of rings (size 3 to 8) (size 9 to 14) (size 15 to 20)
#    0.000    1.429    0.000    4.714    0.000    8.000 
#    0.000   15.714    0.000    3.429    0.000    0.000 
#    0.000    0.000    0.000    0.000    0.000    0.000 
#
# Total GULP energy -78442.441713 kJ/mol
# GULP energy per Si atom -5603.031551 kJ/mol
# Density = 2.631162 g / cm^3
# Si number density = 26.371642 Si / 1000 Ang^3
#
#
#
# Elastic Constant Matrix: (Units=GPa)
#
#
# Indices 1 2 3 4 5 6 
#
# 1 167.2894 54.1560 55.8009 -12.8258 10.0162 -5.6622
# 2 54.1560 155.9636 36.8632 -14.6349 2.9414 13.7943
# 3 55.8009 36.8632 106.1439 1.4445 25.7306 9.6789
# 4 -12.8258 -14.6349 1.4445 43.1171 -1.3052 2.5516
# 5 10.0162 2.9414 25.7306 -1.3052 52.4526 -2.9755
# 6 -5.6622 13.7943 9.6789 2.5516 -2.9755 45.2267
#
#
#
# Elastic Compliance Matrix: (Units=1/GPa)
#
#
# Indices 1 2 3 4 5 6 
#
# 1 0.008116 -0.001930 -0.004011 0.001772 0.000707 0.002410
# 2 -0.001930 0.007902 -0.001712 0.002326 0.000689 -0.002371
# 3 -0.004011 -0.001712 0.013961 -0.002238 -0.006227 -0.003251
# 4 0.001772 0.002326 -0.002238 0.024698 0.001168 -0.001325
# 5 0.000707 0.000689 -0.006227 0.001168 0.022122 0.002601
# 6 0.002410 -0.002371 -0.003251 -0.001325 0.002601 0.024077
#
#
# Mechanical properties :
#
#
# Convention : Reuss Voigt Hill
#
# Bulk Modulus (GPa) = 68.16001 80.33743 74.24872
# Shear Modulus (GPa) = 41.29734 46.99774 44.14754
#
# Velocity S-wave (km/s) = 3.96153 4.22611 4.09596
# Velocity P-wave (km/s) = 6.84303 7.37177 7.11232
#
# Compressibility (1/GPa) = 0.01467136
#
# Stress axis : x y z
#
# Youngs Moduli (GPa) = 123.21916 126.55676 71.62867
#
# Poissons Ratio (x) = 0.24426 0.28733
# Poissons Ratio (y) = 0.23782 0.12262
# Poissons Ratio (z) = 0.49428 0.21665
#
# Static dielectric constant tensor:
#      x y z
#    x 2.091620 0.017710 -0.041720 
#    y 0.017710 2.101850 0.018200 
#    z -0.041720 0.018200 2.214600 
# 
# From -- ./inp_files/69136.got.cif
#   From: 2010.05.17/outbox.cif.g08.bks.cpg/sg2_35_cif.got.tgz:69136.got - 2010.06.03 11:33:40.
