data_PCOD9011544
_publ_section_title
;
Structure prediction by ZEFSAII (Michael W. Deem and Ramdas Pophale) SiO2 
 PCOD9011544
Probable space group: P -1
;
_chemical_formula_sum "Si O2"
_cell_formula_units_Z 12
_cell_length_a 10.741246
_cell_length_b 7.349050
_cell_length_c 18.205238
_cell_angle_alpha 135.665115
_cell_angle_beta 31.602566
_cell_angle_gamma 116.994265
_cell_volume 476.620097
_symmetry_space_group_name_H-M "P -1"
_symmetry_group_IT_number 2
_symmetry_cell_setting 'triclinic'
loop_
_space_group_symop_operation_xyz
x,y,z
-x,-y,-z
loop_
_atom_site_type_symbol
_atom_site_label
_atom_site_fract_x
_atom_site_fract_y
_atom_site_fract_z
Si Si1 0.349552 0.667703 0.366751
Si Si2 0.741460 0.810773 0.270933
Si Si3 0.763510 0.179685 0.223847
Si Si4 0.318391 0.346718 0.145944
Si Si5 0.131270 0.941273 0.190636
Si Si6 0.776664 0.707786 0.454566
O O1 0.640595 0.575689 0.227619
O O2 0.331996 0.462915 0.254128
O O3 0.106274 0.774953 0.575693
O O4 0.294747 0.974421 0.445888
O O5 0.500000 0.000000 0.500000
O O6 0.770590 0.996235 0.241242
O O7 0.999933 0.739509 0.168447
O O8 0.776642 0.473642 0.327517
O O9 0.472174 0.259177 0.360307
O O10 0.000000 0.000000 0.000000
O O11 0.245329 0.076907 0.109813
O O12 0.068964 0.589270 0.303653
O O13 0.617567 0.232304 0.934498
#
# Coordination Sequence:
#
# PCOD9011544 Si02
#       6
#     2   2   2   2   2   2
#     4  10  22  38  63  91 120 168 210 258 314 371
#     4   9  19  41  65  89 125 165 209 263 309 363
#     4  10  21  40  66  95 124 167 215 258 319 377
#     4  11  22  39  61  90 129 165 205 258 320 376
#     4  10  22  40  60  87 129 165 210 256 311 374
#     4  10  22  40  62  90 131 161 209 268 311 373
#
# _framework density 25.177285000000001
#
# number of rings (size 3 to 8) (size 9 to 14) (size 15 to 20)
#    0.000    2.000    1.667    1.000    0.000    5.333 
#    3.000    0.000    0.000    0.000    0.000    0.000 
#    0.000    0.000    0.000    0.000    0.000    0.000 
#
# Total GULP energy -67027.018173 kJ/mol
# GULP energy per Si atom -5585.584848 kJ/mol
# Density = 2.511998 g / cm^3
# Si number density = 25.177285 Si / 1000 Ang^3
#
#
#
# Elastic Constant Matrix: (Units=GPa)
#
#
# Indices 1 2 3 4 5 6 
#
# 1 67.7989 43.2264 29.2974 -16.9436 -24.7242 32.7774
# 2 43.2264 87.4029 52.6862 -32.0598 -21.8731 8.5808
# 3 29.2974 52.6862 157.7608 -17.3291 1.6706 7.0351
# 4 -16.9436 -32.0598 -17.3291 32.4562 -0.6688 -9.4184
# 5 -24.7242 -21.8731 1.6706 -0.6688 41.3453 -13.8533
# 6 32.7774 8.5808 7.0351 -9.4184 -13.8533 40.6672
#
#
#
# Elastic Compliance Matrix: (Units=1/GPa)
#
#
# Indices 1 2 3 4 5 6 
#
# 1 0.040400 -0.016119 -0.001333 -0.003402 0.006404 -0.027537
# 2 -0.016119 0.037539 -0.007210 0.030813 0.017518 0.019422
# 3 -0.001333 -0.007210 0.008715 -0.003771 -0.005591 -0.001689
# 4 -0.003402 0.030813 -0.003771 0.063425 0.021816 0.019013
# 5 0.006404 0.017518 -0.005591 0.021816 0.041667 0.011356
# 6 -0.027537 0.019422 -0.001689 0.019013 0.011356 0.051250
#
#
# Mechanical properties :
#
#
# Convention : Reuss Voigt Hill
#
# Bulk Modulus (GPa) = 26.78831 62.59806 44.69318
# Shear Modulus (GPa) = 16.40616 35.41057 25.90837
#
# Velocity S-wave (km/s) = 2.55547 3.75433 3.21134
# Velocity P-wave (km/s) = 4.40116 6.61137 5.61607
#
# Compressibility (1/GPa) = 0.03732972
#
# Stress axis : x y z
#
# Youngs Moduli (GPa) = 24.75232 26.63918 114.75032
#
# Poissons Ratio (x) = 0.42939 0.15298
# Poissons Ratio (y) = 0.39897 0.82737
# Poissons Ratio (z) = 0.03300 0.19207
#
# Static dielectric constant tensor:
#      x y z
#    x 2.116680 -0.042970 -0.059650 
#    y -0.042970 1.953520 -0.051710 
#    z -0.059650 -0.051710 2.082320 
# 
# From -- ./inp_files/81835.got.cif
#   From: 2010.05.17/outbox.cif.g08.bks.cpg/sg2_41_cif.got.tgz:81835.got - 2010.06.03 11:33:40.
