data_PCOD9011020
_publ_section_title
;
Structure prediction by ZEFSAII (Michael W. Deem and Ramdas Pophale) SiO2 
 PCOD9011020
Probable space group: P -1
;
_chemical_formula_sum "Si O2"
_cell_formula_units_Z 14
_cell_length_a 9.352026
_cell_length_b 7.770284
_cell_length_c 12.210204
_cell_angle_alpha 127.386936
_cell_angle_beta 107.894636
_cell_angle_gamma 54.079236
_cell_volume 569.273965
_symmetry_space_group_name_H-M "P -1"
_symmetry_group_IT_number 2
_symmetry_cell_setting 'triclinic'
loop_
_space_group_symop_operation_xyz
x,y,z
-x,-y,-z
loop_
_atom_site_type_symbol
_atom_site_label
_atom_site_fract_x
_atom_site_fract_y
_atom_site_fract_z
Si Si1 0.797409 0.653397 0.632926
Si Si2 0.133355 0.586591 0.213655
Si Si3 0.339676 0.591847 0.777219
Si Si4 0.560343 0.766211 0.004785
Si Si5 0.249058 0.238155 0.745127
Si Si6 0.540720 0.275406 0.507032
Si Si7 0.010024 0.855318 0.659233
O O1 0.772600 0.591248 0.726905
O O2 0.618779 0.774020 0.567435
O O3 0.923516 0.374099 0.500333
O O4 0.885117 0.819472 0.700285
O O5 0.253037 0.457463 0.086319
O O6 0.089908 0.873739 0.317608
O O7 0.939086 0.628458 0.188219
O O8 0.413012 0.691980 0.927417
O O9 0.256619 0.435651 0.742855
O O10 0.506748 0.401149 0.666475
O O11 0.185506 0.807234 0.746446
O O12 0.597600 0.833570 0.158149
O O13 0.500000 0.000000 0.000000
O O14 0.288458 0.987771 0.591291
O O15 0.500000 0.500000 0.500000
#
# Coordination Sequence:
#
# PCOD9011020 Si02
#       7
#     2   2   2   2   2   2   2
#     4  10  21  40  65 104 141 178 226 284 347 403
#     4  12  24  43  71  99 137 186 234 282 350 407
#     4  11  24  46  69 105 138 184 230 288 347 412
#     4  12  27  48  70  97 139 186 237 285 350 417
#     4  12  25  45  69 104 141 182 234 288 346 414
#     4  11  23  43  72 102 141 183 230 286 347 412
#     4  10  22  41  67 102 142 177 228 288 341 412
#
# _framework density 24.592728999999999
#
# number of rings (size 3 to 8) (size 9 to 14) (size 15 to 20)
#    0.000    0.857    1.429    6.857    2.000    1.143 
#    2.571    1.429    0.000    0.000    0.000    0.000 
#    0.000    0.000    0.000    0.000    0.000    0.000 
#
# Total GULP energy -78441.046153 kJ/mol
# GULP energy per Si atom -5602.931868 kJ/mol
# Density = 2.453675 g / cm^3
# Si number density = 24.592729 Si / 1000 Ang^3
#
#
#
# Elastic Constant Matrix: (Units=GPa)
#
#
# Indices 1 2 3 4 5 6 
#
# 1 92.9213 17.7654 8.2439 11.2616 11.2666 2.7104
# 2 17.7654 53.2184 1.3087 4.4778 1.6399 7.3815
# 3 8.2439 1.3087 82.8532 -5.0623 17.6240 -2.5685
# 4 11.2616 4.4778 -5.0623 32.1346 -6.9167 -1.4191
# 5 11.2666 1.6399 17.6240 -6.9167 32.4903 -8.4022
# 6 2.7104 7.3815 -2.5685 -1.4191 -8.4022 39.0481
#
#
#
# Elastic Compliance Matrix: (Units=1/GPa)
#
#
# Indices 1 2 3 4 5 6 
#
# 1 0.012834 -0.003416 -0.000404 -0.005373 -0.005637 -0.001680
# 2 -0.003416 0.020717 0.000052 -0.002162 -0.001398 -0.004055
# 3 -0.000404 0.000052 0.013685 0.000691 -0.007301 -0.000627
# 4 -0.005373 -0.002162 0.000691 0.035833 0.010353 0.004357
# 5 -0.005637 -0.001398 -0.007301 0.010353 0.041415 0.009463
# 6 -0.001680 -0.004055 -0.000627 0.004357 0.009463 0.028646
#
#
# Mechanical properties :
#
#
# Convention : Reuss Voigt Hill
#
# Bulk Modulus (GPa) = 25.18852 31.51432 28.35142
# Shear Modulus (GPa) = 28.75236 34.17960 31.46598
#
# Velocity S-wave (km/s) = 3.42298 3.73208 3.58087
# Velocity P-wave (km/s) = 5.08792 5.60478 5.35259
#
# Compressibility (1/GPa) = 0.03970063
#
# Stress axis : x y z
#
# Youngs Moduli (GPa) = 77.91558 48.26986 73.07449
#
# Poissons Ratio (x) = 0.16487 0.02955
# Poissons Ratio (y) = 0.26613 -0.00382
# Poissons Ratio (z) = 0.03151 -0.00253
#
# Static dielectric constant tensor:
#      x y z
#    x 1.982600 -0.028830 0.029970 
#    y -0.028830 1.917560 -0.017000 
#    z 0.029970 -0.017000 1.960460 
# 
# From -- ./inp_files/380059.got.cif
#   From: 2010.05.17/outbox.cif.g08.bks.cpg/sg2_191_cif.got.tgz:380059.got - 2010.06.03 11:33:40.
