data_PCOD9011048
_publ_section_title
;
Structure prediction by ZEFSAII (Michael W. Deem and Ramdas Pophale) SiO2 
 PCOD9011048
Probable space group: P -1
;
_chemical_formula_sum "Si O2"
_cell_formula_units_Z 16
_cell_length_a 28.972434
_cell_length_b 15.733011
_cell_length_c 19.376761
_cell_angle_alpha 161.587909
_cell_angle_beta 160.472974
_cell_angle_gamma 19.447543
_cell_volume 827.283715
_symmetry_space_group_name_H-M "P -1"
_symmetry_group_IT_number 2
_symmetry_cell_setting 'triclinic'
loop_
_space_group_symop_operation_xyz
x,y,z
-x,-y,-z
loop_
_atom_site_type_symbol
_atom_site_label
_atom_site_fract_x
_atom_site_fract_y
_atom_site_fract_z
Si Si1 0.887902 0.855493 0.244071
Si Si2 0.520774 0.062079 0.240655
Si Si3 0.060765 0.138561 0.943202
Si Si4 0.334359 0.143453 0.416780
Si Si5 0.502229 0.046712 0.364114
Si Si6 0.724008 0.244242 0.574115
Si Si7 0.641017 0.246248 0.303257
Si Si8 0.263132 0.829441 0.860089
O O1 0.796584 0.004634 0.299546
O O2 0.772891 0.970102 0.105427
O O3 0.000000 0.000000 0.500000
O O4 0.983519 0.499179 0.103186
O O5 0.549040 0.987094 0.303832
O O6 0.657047 0.116625 0.441280
O O7 0.363665 0.386606 0.259975
O O8 0.492158 0.816449 0.967783
O O9 0.910941 0.100292 0.726267
O O10 0.131059 0.979465 0.847118
O O11 0.208179 0.058456 0.139050
O O12 0.279083 0.503155 0.613498
O O13 0.500000 0.000000 0.500000
O O14 0.362432 0.038157 0.454695
O O15 0.391710 0.409894 0.493438
O O16 0.417520 0.847986 0.115762
O O17 0.661591 0.193764 0.373412
#
# Coordination Sequence:
#
# PCOD9011048 Si02
#       8
#     2   2   2   2   2   2   2   2
#     4  12  20  35  58  93 128 152 191 244 318 365
#     4  10  21  40  65  88 127 158 202 260 297 370
#     4  12  24  39  60  92 130 163 196 256 304 369
#     4  12  26  42  61  89 123 171 210 245 300 365
#     4  11  23  39  62  91 118 165 216 243 299 361
#     4  10  22  39  61  97 121 159 204 247 320 361
#     4  11  20  38  63  92 123 159 196 255 309 364
#     4  12  23  40  62  89 127 162 198 258 304 369
#
# _framework density 19.340402000000001
#
# number of rings (size 3 to 8) (size 9 to 14) (size 15 to 20)
#    0.000    0.750    5.000    4.125    0.000    0.000 
#    0.000    0.625    0.000    1.500    0.000    0.000 
#    0.000    0.000    0.000    0.000    0.000    0.000 
#
# Total GULP energy -89354.536511 kJ/mol
# GULP energy per Si atom -5584.658532 kJ/mol
# Density = 1.929638 g / cm^3
# Si number density = 19.340402 Si / 1000 Ang^3
#
#
#
# Elastic Constant Matrix: (Units=GPa)
#
#
# Indices 1 2 3 4 5 6 
#
# 1 111.9759 36.1585 48.0805 -12.6360 3.7248 -11.6555
# 2 36.1585 53.8955 20.0125 -5.3392 -5.2307 -7.1285
# 3 48.0805 20.0125 80.8615 3.0599 -9.6372 -7.1796
# 4 -12.6360 -5.3392 3.0599 27.1099 2.5753 -7.6744
# 5 3.7248 -5.2307 -9.6372 2.5753 32.0412 -4.9079
# 6 -11.6555 -7.1285 -7.1796 -7.6744 -4.9079 27.4064
#
#
#
# Elastic Compliance Matrix: (Units=1/GPa)
#
#
# Indices 1 2 3 4 5 6 
#
# 1 0.016670 -0.006956 -0.008827 0.009224 -0.005778 0.004516
# 2 -0.006956 0.025058 -0.001122 0.002735 0.005099 0.004944
# 3 -0.008827 -0.001122 0.019038 -0.007098 0.007176 0.000239
# 4 0.009224 0.002735 -0.007098 0.047243 -0.004222 0.015247
# 5 -0.005778 0.005099 0.007176 -0.004222 0.036137 0.006038
# 6 0.004516 0.004944 0.000239 0.015247 0.006038 0.045108
#
#
# Mechanical properties :
#
#
# Convention : Reuss Voigt Hill
#
# Bulk Modulus (GPa) = 37.09863 50.58177 43.84020
# Shear Modulus (GPa) = 21.54710 26.81026 24.17868
#
# Velocity S-wave (km/s) = 3.34143 3.72725 3.53960
# Velocity P-wave (km/s) = 5.84042 6.68830 6.27869
#
# Compressibility (1/GPa) = 0.02695518
#
# Stress axis : x y z
#
# Youngs Moduli (GPa) = 59.98794 39.90802 52.52551
#
# Poissons Ratio (x) = 0.27760 0.46365
# Poissons Ratio (y) = 0.41727 0.05895
# Poissons Ratio (z) = 0.52953 0.04479
#
# Static dielectric constant tensor:
#      x y z
#    x 1.675800 0.029370 -0.042880 
#    y 0.029370 1.713810 -0.069760 
#    z -0.042880 -0.069760 1.780920 
# 
# From -- ./inp_files/81666.got.cif
#   From: 2010.05.17/outbox.cif.g08.bks.cpg/sg2_41_cif.got.tgz:81666.got - 2010.06.03 11:33:40.
