data_PCOD9011069
_publ_section_title
;
Structure prediction by ZEFSAII (Michael W. Deem and Ramdas Pophale) SiO2 
 PCOD9011069
Probable space group: P -1
;
_chemical_formula_sum "Si O2"
_cell_formula_units_Z 16
_cell_length_a 18.874973
_cell_length_b 10.896740
_cell_length_c 7.251074
_cell_angle_alpha 60.636380
_cell_angle_beta 97.006140
_cell_angle_gamma 144.746193
_cell_volume 624.812640
_symmetry_space_group_name_H-M "P -1"
_symmetry_group_IT_number 2
_symmetry_cell_setting 'triclinic'
loop_
_space_group_symop_operation_xyz
x,y,z
-x,-y,-z
loop_
_atom_site_type_symbol
_atom_site_label
_atom_site_fract_x
_atom_site_fract_y
_atom_site_fract_z
Si Si1 0.118250 0.107711 0.711063
Si Si2 0.048490 0.385468 0.762315
Si Si3 0.546739 0.081517 0.238638
Si Si4 0.353934 0.304145 0.498651
Si Si5 0.342817 0.995935 0.582778
Si Si6 0.160086 0.422598 0.240850
Si Si7 0.862092 0.322267 0.799252
Si Si8 0.553483 0.799969 0.926901
O O1 0.254913 0.239503 0.629018
O O2 0.166664 0.349270 0.491972
O O3 0.997307 0.868530 0.690518
O O4 0.032690 0.902534 0.015562
O O5 0.213429 0.679845 0.679217
O O6 0.054731 0.449555 0.507530
O O7 0.957319 0.352240 0.859188
O O8 0.554098 0.926892 0.316016
O O9 0.446224 0.030242 0.159617
O O10 0.500000 0.000000 0.500000
O O11 0.709155 0.406988 0.976247
O O12 0.500000 0.500000 0.500000
O O13 0.277801 0.026285 0.622568
O O14 0.412820 0.488116 0.203705
O O15 0.443934 0.216196 0.279255
O O16 0.171686 0.610770 0.121786
O O17 0.705478 0.001436 0.905575
#
# Coordination Sequence:
#
# PCOD9011069 Si02
#       8
#     2   2   2   2   2   2   2   2
#     4  11  24  40  62  88 128 163 199 255 302 364
#     4  10  21  42  63  90 125 160 204 252 305 364
#     4  10  21  40  65  90 117 159 206 252 302 363
#     4  12  25  38  59  94 127 157 201 257 305 362
#     4  10  22  40  65  87 115 167 205 247 308 365
#     4  11  23  41  65  92 120 162 209 252 301 363
#     4  10  23  39  66  92 121 160 206 254 302 362
#     4  10  22  42  60  86 126 159 200 253 306 365
#
# _framework density 25.607676000000001
#
# number of rings (size 3 to 8) (size 9 to 14) (size 15 to 20)
#    0.000    1.500    2.500    1.875    3.500    3.000 
#    0.000    1.250    0.000    0.000    0.000    0.000 
#    0.000    0.000    0.000    0.000    0.000    0.000 
#
# Total GULP energy -89398.364624 kJ/mol
# GULP energy per Si atom -5587.397789 kJ/mol
# Density = 2.554939 g / cm^3
# Si number density = 25.607676 Si / 1000 Ang^3
#
#
#
# Elastic Constant Matrix: (Units=GPa)
#
#
# Indices 1 2 3 4 5 6 
#
# 1 130.2722 14.1650 29.6825 -8.9036 9.5077 14.0003
# 2 14.1650 27.6329 4.4197 -4.5986 -0.4302 14.1508
# 3 29.6825 4.4197 152.6628 -0.5704 12.5180 3.0177
# 4 -8.9036 -4.5986 -0.5704 31.6590 1.8707 3.6481
# 5 9.5077 -0.4302 12.5180 1.8707 49.9541 -2.2452
# 6 14.0003 14.1508 3.0177 3.6481 -2.2452 31.5242
#
#
#
# Elastic Compliance Matrix: (Units=1/GPa)
#
#
# Indices 1 2 3 4 5 6 
#
# 1 0.008895 -0.002276 -0.001460 0.002608 -0.001588 -0.003204
# 2 -0.002276 0.050659 -0.000508 0.009358 -0.000378 -0.022791
# 3 -0.001460 -0.000508 0.006964 -0.000289 -0.001455 0.000140
# 4 0.002608 0.009358 -0.000289 0.034893 -0.002078 -0.009517
# 5 -0.001588 -0.000378 -0.001455 -0.002078 0.020883 0.002742
# 6 -0.003204 -0.022791 0.000140 -0.009517 0.002742 0.044658
#
#
# Mechanical properties :
#
#
# Convention : Reuss Voigt Hill
#
# Bulk Modulus (GPa) = 17.23235 45.23360 31.23297
# Shear Modulus (GPa) = 25.66934 40.11415 32.89175
#
# Velocity S-wave (km/s) = 3.16952 3.96218 3.58781
# Velocity P-wave (km/s) = 4.48759 6.21565 5.42092
#
# Compressibility (1/GPa) = 0.05803039
#
# Stress axis : x y z
#
# Youngs Moduli (GPa) = 112.42410 19.73971 143.58676
#
# Poissons Ratio (x) = 0.04493 0.20967
# Poissons Ratio (y) = 0.25591 0.07288
# Poissons Ratio (z) = 0.16417 0.01002
#
# Static dielectric constant tensor:
#      x y z
#    x 2.016830 -0.066540 0.009650 
#    y -0.066540 2.031300 0.035310 
#    z 0.009650 0.035310 2.141990 
# 
# From -- ./inp_files/226506.got.cif
#   From: 2010.05.17/outbox.cif.g08.bks.cpg/sg2_114_cif.got.tgz:226506.got - 2010.06.03 11:33:40.
