data_PCOD9011779
_publ_section_title
;
Structure prediction by ZEFSAII (Michael W. Deem and Ramdas Pophale) SiO2 
 PCOD9011779
Probable space group: P -1
;
_chemical_formula_sum "Si O2"
_cell_formula_units_Z 16
_cell_length_a 24.683039
_cell_length_b 7.913590
_cell_length_c 9.905963
_cell_angle_alpha 84.448317
_cell_angle_beta 138.557543
_cell_angle_gamma 60.326955
_cell_volume 647.070345
_symmetry_space_group_name_H-M "P -1"
_symmetry_group_IT_number 2
_symmetry_cell_setting 'triclinic'
loop_
_space_group_symop_operation_xyz
x,y,z
-x,-y,-z
loop_
_atom_site_type_symbol
_atom_site_label
_atom_site_fract_x
_atom_site_fract_y
_atom_site_fract_z
Si Si1 0.390418 0.065592 0.873072
Si Si2 0.597960 0.095230 0.803502
Si Si3 0.321910 0.948825 0.505944
Si Si4 0.884997 0.862694 0.720104
Si Si5 0.863278 0.238557 0.526345
Si Si6 0.607564 0.467409 0.864343
Si Si7 0.012518 0.578159 0.719752
Si Si8 0.043371 0.673344 0.500956
O O1 0.359242 0.974765 0.713953
O O2 0.226773 0.455582 0.579942
O O3 0.500000 0.000000 0.000000
O O4 0.456253 0.876575 0.153153
O O5 0.641260 0.218787 0.884480
O O6 0.470690 0.299451 0.430081
O O7 0.764396 0.702886 0.108386
O O8 0.249449 0.902657 0.433751
O O9 0.471026 0.673174 0.706812
O O10 0.179179 0.303012 0.132987
O O11 0.863742 0.844273 0.525572
O O12 0.935857 0.964487 0.780225
O O13 0.000000 0.500000 0.000000
O O14 0.984882 0.114609 0.661404
O O15 0.726626 0.386202 0.169614
O O16 0.987166 0.762126 0.542667
O O17 0.028621 0.364838 0.701207
#
# Coordination Sequence:
#
# PCOD9011779 Si02
#       8
#     2   2   2   2   2   2   2   2
#     4  11  23  38  60  96 138 168 209 267 334 394
#     4  10  23  40  60  98 131 172 221 266 326 406
#     4  11  22  41  65  94 130 179 217 269 331 400
#     4  10  23  42  65  90 128 174 225 268 325 393
#     4  11  23  40  66  98 131 173 218 279 336 388
#     4  11  22  39  68  95 133 173 220 269 333 398
#     4  10  21  42  65  89 126 181 222 272 322 384
#     4  10  21  40  67  92 131 173 223 275 324 388
#
# _framework density 24.726831000000001
#
# number of rings (size 3 to 8) (size 9 to 14) (size 15 to 20)
#    0.000    1.500    2.500    3.000    1.750    4.500 
#    0.000   10.000    0.000    0.000    0.000    0.000 
#    0.000    0.000    0.000    0.000    0.000    0.000 
#
# Total GULP energy -89352.066262 kJ/mol
# GULP energy per Si atom -5584.504141 kJ/mol
# Density = 2.467055 g / cm^3
# Si number density = 24.726831 Si / 1000 Ang^3
#
#
#
# Elastic Constant Matrix: (Units=GPa)
#
#
# Indices 1 2 3 4 5 6 
#
# 1 204.3054 17.9926 15.6815 0.7156 -32.6239 -4.9743
# 2 17.9926 71.2902 0.4788 -3.4151 -16.1401 1.3013
# 3 15.6815 0.4788 47.0553 12.1554 -17.9860 -2.9850
# 4 0.7156 -3.4151 12.1554 22.2782 -4.1973 -12.4050
# 5 -32.6239 -16.1401 -17.9860 -4.1973 34.9069 -2.4530
# 6 -4.9743 1.3013 -2.9850 -12.4050 -2.4530 38.3659
#
#
#
# Elastic Compliance Matrix: (Units=1/GPa)
#
#
# Indices 1 2 3 4 5 6 
#
# 1 0.005862 -0.000131 -0.000164 0.001919 0.005686 0.001736
# 2 -0.000131 0.016289 0.002574 0.003619 0.009269 0.001394
# 3 -0.000164 0.002574 0.030603 -0.014236 0.014997 -0.001372
# 4 0.001919 0.003619 -0.014236 0.065645 0.005473 0.020594
# 5 0.005686 0.009269 0.014997 0.005473 0.047081 0.006369
# 6 0.001736 0.001394 -0.001372 0.020594 0.006369 0.033202
#
#
# Mechanical properties :
#
#
# Convention : Reuss Voigt Hill
#
# Bulk Modulus (GPa) = 17.44818 43.43963 30.44391
# Shear Modulus (GPa) = 23.44901 38.34340 30.89621
#
# Velocity S-wave (km/s) = 3.08283 3.94214 3.53866
# Velocity P-wave (km/s) = 4.44336 6.19085 5.38841
#
# Compressibility (1/GPa) = 0.05731257
#
# Stress axis : x y z
#
# Youngs Moduli (GPa) = 170.58021 61.38984 32.67674
#
# Poissons Ratio (x) = 0.00803 0.00537
# Poissons Ratio (y) = 0.02231 -0.08412
# Poissons Ratio (z) = 0.02806 -0.15804
#
# Static dielectric constant tensor:
#      x y z
#    x 2.042990 0.019360 0.006700 
#    y 0.019360 2.020350 -0.049060 
#    z 0.006700 -0.049060 2.135000 
# 
# From -- ./inp_files/351745.got.cif
#   From: 2010.05.17/outbox.cif.g08.bks.cpg/sg2_176_cif.got.tgz:351745.got - 2010.06.03 11:33:40.
