data_PCOD9011016
_publ_section_title
;
Structure prediction by ZEFSAII (Michael W. Deem and Ramdas Pophale) SiO2 
 PCOD9011016
Probable space group: P -1
;
_chemical_formula_sum "Si O2"
_cell_formula_units_Z 16
_cell_length_a 15.855844
_cell_length_b 10.856464
_cell_length_c 9.310663
_cell_angle_alpha 104.120894
_cell_angle_beta 121.937406
_cell_angle_gamma 124.976260
_cell_volume 687.649136
_symmetry_space_group_name_H-M "P -1"
_symmetry_group_IT_number 2
_symmetry_cell_setting 'triclinic'
loop_
_space_group_symop_operation_xyz
x,y,z
-x,-y,-z
loop_
_atom_site_type_symbol
_atom_site_label
_atom_site_fract_x
_atom_site_fract_y
_atom_site_fract_z
Si Si1 0.740339 0.057956 0.356609
Si Si2 0.793521 0.014578 0.078567
Si Si3 0.657830 0.255303 0.038991
Si Si4 0.707133 0.499406 0.899660
Si Si5 0.885338 0.475992 0.595145
Si Si6 0.453987 0.782788 0.607421
Si Si7 0.015197 0.007487 0.186534
Si Si8 0.595220 0.663184 0.273877
O O1 0.804445 0.065685 0.268697
O O2 0.874850 0.320755 0.597577
O O3 0.531198 0.892709 0.098106
O O4 0.703313 0.910732 0.397949
O O5 0.909278 0.239230 0.147006
O O6 0.904692 0.006279 0.152981
O O7 0.574222 0.792139 0.772231
O O8 0.733352 0.443164 0.049674
O O9 0.579614 0.044962 0.829037
O O10 0.805750 0.384218 0.333770
O O11 0.597206 0.294818 0.625648
O O12 0.572073 0.472194 0.810683
O O13 0.900039 0.762120 0.077901
O O14 0.740896 0.405563 0.534891
O O15 0.238048 0.245240 0.493836
O O16 0.000000 0.000000 0.000000
O O17 0.500000 0.500000 0.000000
#
# Coordination Sequence:
#
# PCOD9011016 Si02
#       8
#     2   2   2   2   2   2   2   2
#     4  10  21  40  65 103 131 171 222 281 334 402
#     4  12  24  37  71  95 133 181 228 272 339 402
#     4  10  21  42  68 101 139 172 224 282 339 405
#     4  11  26  44  71  96 138 184 222 283 345 401
#     4  11  22  40  69 103 138 173 224 284 335 407
#     4  11  22  43  66 101 137 180 223 273 345 412
#     4  12  29  48  66  99 139 184 234 280 341 412
#     4  11  27  47  71 101 138 179 233 291 337 396
#
# _framework density 23.267681
#
# number of rings (size 3 to 8) (size 9 to 14) (size 15 to 20)
#    0.000    1.000    2.500    3.750    5.250    5.000 
#    0.000    0.000    0.000    7.500    0.000    0.000 
#    0.000    0.000    0.000    0.000    0.000    0.000 
#
# Total GULP energy -89607.792402 kJ/mol
# GULP energy per Si atom -5600.487025 kJ/mol
# Density = 2.321472 g / cm^3
# Si number density = 23.267681 Si / 1000 Ang^3
#
#
#
# Elastic Constant Matrix: (Units=GPa)
#
#
# Indices 1 2 3 4 5 6 
#
# 1 134.4243 14.6931 63.9395 -5.5638 13.5622 13.2637
# 2 14.6931 90.5893 24.3663 22.7910 8.8041 15.4372
# 3 63.9395 24.3663 71.1971 -9.1351 9.3762 6.8478
# 4 -5.5638 22.7910 -9.1351 26.6301 4.0215 -3.3210
# 5 13.5622 8.8041 9.3762 4.0215 34.0049 0.1153
# 6 13.2637 15.4372 6.8478 -3.3210 0.1153 27.7757
#
#
#
# Elastic Compliance Matrix: (Units=1/GPa)
#
#
# Indices 1 2 3 4 5 6 
#
# 1 0.014346 0.004354 -0.014246 -0.006095 -0.002178 -0.006478
# 2 0.004354 0.022675 -0.013336 -0.024716 -0.000959 -0.014345
# 3 -0.014246 -0.013336 0.033700 0.021467 -0.002725 0.008484
# 4 -0.006095 -0.024716 0.021467 0.068012 -0.005199 0.019508
# 5 -0.002178 -0.000959 -0.002725 -0.005199 0.031886 0.001491
# 6 -0.006478 -0.014345 0.008484 0.019508 0.001491 0.047303
#
#
# Mechanical properties :
#
#
# Convention : Reuss Voigt Hill
#
# Bulk Modulus (GPa) = 41.20884 55.80095 48.50489
# Shear Modulus (GPa) = 18.35084 30.56290 24.45687
#
# Velocity S-wave (km/s) = 2.81140 3.62820 3.24560
# Velocity P-wave (km/s) = 5.31863 6.44872 5.91075
#
# Compressibility (1/GPa) = 0.02426664
#
# Stress axis : x y z
#
# Youngs Moduli (GPa) = 69.70609 44.10068 29.67334
#
# Poissons Ratio (x) = -0.19201 0.42272
# Poissons Ratio (y) = -0.30349 0.39571
# Poissons Ratio (z) = 0.99301 0.58811
#
# Static dielectric constant tensor:
#      x y z
#    x 1.886700 -0.031170 0.019260 
#    y -0.031170 1.941950 0.014160 
#    z 0.019260 0.014160 1.850240 
# 
# From -- ./inp_files/308143.got.cif
#   From: 2010.05.17/outbox.cif.g08.bks.cpg/sg2_155_cif.got.tgz:308143.got - 2010.06.03 11:33:40.
