data_PCOD9011029
_publ_section_title
;
Structure prediction by ZEFSAII (Michael W. Deem and Ramdas Pophale) SiO2 
 PCOD9011029
Probable space group: P -1
;
_chemical_formula_sum "Si O2"
_cell_formula_units_Z 14
_cell_length_a 21.305142
_cell_length_b 8.317746
_cell_length_c 6.797555
_cell_angle_alpha 121.089378
_cell_angle_beta 109.611445
_cell_angle_gamma 39.024573
_cell_volume 644.721814
_symmetry_space_group_name_H-M "P -1"
_symmetry_group_IT_number 2
_symmetry_cell_setting 'triclinic'
loop_
_space_group_symop_operation_xyz
x,y,z
-x,-y,-z
loop_
_atom_site_type_symbol
_atom_site_label
_atom_site_fract_x
_atom_site_fract_y
_atom_site_fract_z
Si Si1 0.975969 0.874520 0.260573
Si Si2 0.578707 0.370687 0.172837
Si Si3 0.488433 0.136807 0.374153
Si Si4 0.912216 0.597329 0.601401
Si Si5 0.204828 0.982549 0.921242
Si Si6 0.649286 0.805474 0.012005
Si Si7 0.856112 0.532249 0.114015
O O1 0.860813 0.061290 0.228851
O O2 0.027885 0.604539 0.275134
O O3 0.000000 0.000000 0.500000
O O4 0.037274 0.754085 0.045538
O O5 0.530502 0.605608 0.435112
O O6 0.614321 0.090570 0.100722
O O7 0.676232 0.276758 0.137082
O O8 0.500000 0.500000 0.000000
O O9 0.589872 0.890558 0.202965
O O10 0.500000 0.000000 0.500000
O O11 0.395494 0.245463 0.223935
O O12 0.862217 0.559861 0.370390
O O13 0.000000 0.500000 0.500000
O O14 0.827703 0.896350 0.812932
O O15 0.173715 0.214062 0.877965
O O16 0.769076 0.564947 0.000446
#
# Coordination Sequence:
#
# PCOD9011029 Si02
#       7
#     2   2   2   2   2   2   2
#     4  11  23  38  59  92 129 154 197 259 306 359
#     4  11  23  42  65  92 128 167 209 256 315 371
#     4  11  23  43  65  90 130 160 212 261 310 370
#     4  11  19  40  64  82 116 161 205 241 297 370
#     4  10  22  40  61  90 121 161 207 251 302 365
#     4  10  24  42  64  94 122 169 208 256 315 371
#     4  10  21  40  65  86 119 164 206 245 306 368
#
# _framework density 21.714793
#
# number of rings (size 3 to 8) (size 9 to 14) (size 15 to 20)
#    0.000    1.429    4.286    1.286    4.000    1.714 
#    0.000    0.000    0.000    0.000    0.000    0.000 
#    0.000    0.000    0.000    0.000    0.000    0.000 
#
# Total GULP energy -78183.401708 kJ/mol
# GULP energy per Si atom -5584.528693 kJ/mol
# Density = 2.166537 g / cm^3
# Si number density = 21.714793 Si / 1000 Ang^3
#
#
#
# Elastic Constant Matrix: (Units=GPa)
#
#
# Indices 1 2 3 4 5 6 
#
# 1 108.5745 26.0283 39.7484 -19.5524 8.8851 -38.4033
# 2 26.0283 37.1253 8.9659 -11.0714 -3.1998 -18.8854
# 3 39.7484 8.9659 131.2589 -14.8855 9.8774 -12.1027
# 4 -19.5524 -11.0714 -14.8855 19.2930 3.6135 6.7727
# 5 8.8851 -3.1998 9.8774 3.6135 40.1523 -3.9626
# 6 -38.4033 -18.8854 -12.1027 6.7727 -3.9626 39.1603
#
#
#
# Elastic Compliance Matrix: (Units=1/GPa)
#
#
# Indices 1 2 3 4 5 6 
#
# 1 0.017425 -0.002020 -0.002500 0.010501 -0.003042 0.013217
# 2 -0.002020 0.041277 0.000789 0.016029 0.003656 0.015767
# 3 -0.002500 0.000789 0.009063 0.005466 -0.002148 -0.000433
# 4 0.010501 0.016029 0.005466 0.075469 -0.008611 0.005794
# 5 -0.003042 0.003656 -0.002148 -0.008611 0.027408 0.002378
# 6 0.013217 0.015767 -0.000433 0.005794 0.002378 0.045206
#
#
# Mechanical properties :
#
#
# Convention : Reuss Voigt Hill
#
# Bulk Modulus (GPa) = 16.58300 47.38267 31.98283
# Shear Modulus (GPa) = 20.54128 33.20218 26.87173
#
# Velocity S-wave (km/s) = 3.07898 3.91450 3.52161
# Velocity P-wave (km/s) = 4.50483 6.50376 5.59430
#
# Compressibility (1/GPa) = 0.06030272
#
# Stress axis : x y z
#
# Youngs Moduli (GPa) = 57.38951 24.22645 110.33425
#
# Poissons Ratio (x) = 0.04893 0.27586
# Poissons Ratio (y) = 0.11591 -0.08701
# Poissons Ratio (z) = 0.14348 -0.01910
#
# Static dielectric constant tensor:
#      x y z
#    x 1.746200 -0.040250 0.003490 
#    y -0.040250 1.763380 0.016350 
#    z 0.003490 0.016350 1.775770 
# 
# From -- ./inp_files/37730.got.cif
#   From: 2010.05.17/outbox.cif.g08.bks.cpg/sg2_19_cif.got.tgz:37730.got - 2010.06.03 11:33:40.
