data_PCOD9011005
_publ_section_title
;
Structure prediction by ZEFSAII (Michael W. Deem and Ramdas Pophale) SiO2 
 PCOD9011005
Probable space group: P -1
;
_chemical_formula_sum "Si O2"
_cell_formula_units_Z 16
_cell_length_a 22.312732
_cell_length_b 18.935088
_cell_length_c 10.267694
_cell_angle_alpha 29.092958
_cell_angle_beta 29.530946
_cell_angle_gamma 16.831153
_cell_volume 593.000233
_symmetry_space_group_name_H-M "P -1"
_symmetry_group_IT_number 2
_symmetry_cell_setting 'triclinic'
loop_
_space_group_symop_operation_xyz
x,y,z
-x,-y,-z
loop_
_atom_site_type_symbol
_atom_site_label
_atom_site_fract_x
_atom_site_fract_y
_atom_site_fract_z
Si Si1 0.537904 0.770621 0.775516
Si Si2 0.343111 0.601883 0.014858
Si Si3 0.172542 0.650578 0.641634
Si Si4 0.548067 0.159373 0.869317
Si Si5 0.001941 0.605343 0.517768
Si Si6 0.049651 0.076044 0.611913
Si Si7 0.221176 0.286312 0.004261
Si Si8 0.928508 0.760034 0.147477
O O1 0.536362 0.611191 0.976156
O O2 0.746497 0.643978 0.527246
O O3 0.315625 0.047147 0.699022
O O4 0.523550 0.786081 0.934116
O O5 0.155865 0.685263 0.296217
O O6 0.500000 0.500000 0.000000
O O7 0.205808 0.848668 0.789392
O O8 0.391350 0.433015 0.660431
O O9 0.088615 0.846630 0.377265
O O10 0.221180 0.450924 0.792009
O O11 0.991295 0.810750 0.836255
O O12 0.787548 0.983013 0.681077
O O13 0.578974 0.973620 0.035029
O O14 0.949235 0.503456 0.711554
O O15 0.835430 0.772992 0.677940
O O16 0.987550 0.739913 0.215764
O O17 0.000000 0.500000 0.000000
#
# Coordination Sequence:
#
# PCOD9011005 Si02
#       8
#     2   2   2   2   2   2   2   2
#     4  12  24  43  72  98 137 180 229 287 347 399
#     4  11  28  51  73 101 126 178 238 292 360 414
#     4  11  22  42  66 104 142 186 227 277 335 407
#     4  12  23  42  69 104 139 182 229 276 342 414
#     4  10  22  41  64 100 144 190 223 267 338 405
#     4  11  24  49  74  94 137 173 230 295 344 416
#     4  11  22  41  66  99 150 191 227 272 330 404
#     4  10  21  40  65 101 147 181 226 273 328 410
#
# _framework density 26.981439000000002
#
# number of rings (size 3 to 8) (size 9 to 14) (size 15 to 20)
#    0.000    1.000    3.750    3.000    0.000    4.500 
#    0.000    1.250    0.000    0.000    0.000    0.000 
#    0.000    0.000    0.000    0.000    0.000    0.000 
#
# Total GULP energy -89255.662923 kJ/mol
# GULP energy per Si atom -5578.478933 kJ/mol
# Density = 2.692003 g / cm^3
# Si number density = 26.981439 Si / 1000 Ang^3
#
#
#
# Elastic Constant Matrix: (Units=GPa)
#
#
# Indices 1 2 3 4 5 6 
#
# 1 95.7091 86.6730 27.4302 5.3112 20.7525 17.4593
# 2 86.6730 123.2594 49.0023 -0.8193 22.3814 -12.3117
# 3 27.4302 49.0023 89.2586 15.6753 27.4451 11.1849
# 4 5.3112 -0.8193 15.6753 47.9446 -3.4815 6.6901
# 5 20.7525 22.3814 27.4451 -3.4815 47.4350 4.4605
# 6 17.4593 -12.3117 11.1849 6.6901 4.4605 55.0171
#
#
#
# Elastic Compliance Matrix: (Units=1/GPa)
#
#
# Indices 1 2 3 4 5 6 
#
# 1 0.059729 -0.050673 0.018463 -0.009826 -0.010617 -0.031992
# 2 -0.050673 0.054403 -0.022112 0.009969 0.007114 0.030961
# 3 0.018463 -0.022112 0.024469 -0.009319 -0.011193 -0.013741
# 4 -0.009826 0.009969 -0.009319 0.025123 0.006486 0.003663
# 5 -0.010617 0.007114 -0.011193 0.006486 0.028936 0.004102
# 6 -0.031992 0.030961 -0.013741 0.003663 0.004102 0.037273
#
#
# Mechanical properties :
#
#
# Convention : Reuss Voigt Hill
#
# Bulk Modulus (GPa) = 33.38250 70.49313 51.93781
# Shear Modulus (GPa) = 14.34458 39.75411 27.04935
#
# Velocity S-wave (km/s) = 2.30825 3.84264 3.16969
# Velocity P-wave (km/s) = 4.41625 6.77282 5.71727
#
# Compressibility (1/GPa) = 0.02995582
#
# Stress axis : x y z
#
# Youngs Moduli (GPa) = 16.74223 18.38138 40.86774
#
# Poissons Ratio (x) = 0.93144 -0.75452
# Poissons Ratio (y) = 0.84838 0.90368
# Poissons Ratio (z) = -0.30910 0.40645
#
# Static dielectric constant tensor:
#      x y z
#    x 2.254600 -0.004650 -0.023460 
#    y -0.004650 2.057230 -0.064450 
#    z -0.023460 -0.064450 2.190800 
# 
# From -- ./inp_files/348810.got.cif
#   From: 2010.05.17/outbox.cif.g08.bks.cpg/sg2_175_cif.got.tgz:348810.got - 2010.06.03 11:33:40.
