data_PCOD9011843
_publ_section_title
;
Structure prediction by ZEFSAII (Michael W. Deem and Ramdas Pophale) SiO2 
 PCOD9011843
Probable space group: P -1
;
_chemical_formula_sum "Si O2"
_cell_formula_units_Z 13
_cell_length_a 7.986220
_cell_length_b 7.105548
_cell_length_c 9.843818
_cell_angle_alpha 105.756474
_cell_angle_beta 117.630158
_cell_angle_gamma 96.583894
_cell_volume 456.948755
_symmetry_space_group_name_H-M "P -1"
_symmetry_group_IT_number 2
_symmetry_cell_setting 'triclinic'
loop_
_space_group_symop_operation_xyz
x,y,z
-x,-y,-z
loop_
_atom_site_type_symbol
_atom_site_label
_atom_site_fract_x
_atom_site_fract_y
_atom_site_fract_z
Si Si1 0.267496 0.862135 0.570433
Si Si2 0.805867 0.393031 0.081507
Si Si3 0.755783 0.366463 0.751321
Si Si4 0.500000 0.500000 0.500000
Si Si5 0.075948 0.999321 0.877297
Si Si6 0.845329 0.789362 0.511537
Si Si7 0.490948 0.216278 0.105630
O O1 0.328603 0.790012 0.433960
O O2 0.425505 0.812792 0.720515
O O3 0.040669 0.751663 0.509866
O O4 0.265331 0.096527 0.610943
O O5 0.872608 0.215067 0.148726
O O6 0.635492 0.409157 0.122237
O O7 0.009248 0.563273 0.167091
O O8 0.724346 0.312438 0.886058
O O9 0.648421 0.533105 0.697981
O O10 0.693018 0.610296 0.497330
O O11 0.927822 0.969312 0.691106
O O12 0.264432 0.194157 0.981947
O O13 0.000000 0.000000 0.000000
O O14 0.500000 0.000000 0.000000
#
# Coordination Sequence:
#
# PCOD9011843 Si02
#       7
#     2   2   2   1   2   2   2
#     4  11  24  45  73 101 133 188 230 280 343 409
#     4  10  22  45  64  98 135 181 222 283 340 409
#     4  11  25  43  71  97 141 180 226 282 347 404
#     4  12  26  42  64 104 140 172 224 294 334 404
#     4  11  22  41  65  97 134 177 223 281 339 402
#     4  11  25  44  66 103 143 172 232 288 334 410
#     4  10  21  40  67  95 132 180 223 277 334 408
#
# _framework density 28.449583000000001
#
# number of rings (size 3 to 8) (size 9 to 14) (size 15 to 20)
#    0.000    1.231    4.615    0.923    6.462    3.077 
#    0.000    0.000    0.000    5.538    0.000    0.000 
#    0.000    0.000    0.000    0.000    0.000    0.000 
#
# Total GULP energy -72561.059986 kJ/mol
# GULP energy per Si atom -5581.619999 kJ/mol
# Density = 2.838483 g / cm^3
# Si number density = 28.449583 Si / 1000 Ang^3
#
#
#
# Elastic Constant Matrix: (Units=GPa)
#
#
# Indices 1 2 3 4 5 6 
#
# 1 90.6783 22.4796 35.0341 5.1784 22.4588 26.7816
# 2 22.4796 76.7845 26.3645 -10.0722 12.9325 15.8104
# 3 35.0341 26.3645 191.0005 -19.6285 8.0697 -3.3321
# 4 5.1784 -10.0722 -19.6285 50.4955 1.0474 3.7568
# 5 22.4588 12.9325 8.0697 1.0474 49.1481 1.2615
# 6 26.7816 15.8104 -3.3321 3.7568 1.2615 61.7636
#
#
#
# Elastic Compliance Matrix: (Units=1/GPa)
#
#
# Indices 1 2 3 4 5 6 
#
# 1 0.016130 -0.001702 -0.002828 -0.002485 -0.006241 -0.006432
# 2 -0.001702 0.015659 -0.001466 0.003050 -0.003078 -0.003472
# 3 -0.002828 -0.001466 0.006196 0.002261 0.000567 0.001787
# 4 -0.002485 0.003050 0.002261 0.021622 -0.000477 -0.000887
# 5 -0.006241 -0.003078 0.000567 -0.000477 0.023847 0.003066
# 6 -0.006432 -0.003472 0.001787 -0.000887 0.003066 0.019956
#
#
# Mechanical properties :
#
#
# Convention : Reuss Voigt Hill
#
# Bulk Modulus (GPa) = 38.47160 58.46884 48.47022
# Shear Modulus (GPa) = 40.30144 50.58711 45.44427
#
# Velocity S-wave (km/s) = 3.76785 4.22136 4.00104
# Velocity P-wave (km/s) = 5.69921 6.66005 6.19827
#
# Compressibility (1/GPa) = 0.02599320
#
# Stress axis : x y z
#
# Youngs Moduli (GPa) = 61.99775 63.86285 161.38742
#
# Poissons Ratio (x) = 0.10867 0.45633
# Poissons Ratio (y) = 0.10550 0.23665
# Poissons Ratio (z) = 0.17530 0.09365
#
# Static dielectric constant tensor:
#      x y z
#    x 4.893870 -1.558480 -0.253750 
#    y -1.558480 3.137440 0.216780 
#    z -0.253750 0.216780 2.225860 
# 
# From -- ./inp_files/153533.got.cif
#   From: 2010.05.17/outbox.cif.g08.bks.cpg/sg2_77_cif.got.tgz:153533.got - 2010.06.03 11:33:40.
