data_PCOD9011131
_publ_section_title
;
Structure prediction by ZEFSAII (Michael W. Deem and Ramdas Pophale) SiO2 
 PCOD9011131
Probable space group: P -1
;
_chemical_formula_sum "Si O2"
_cell_formula_units_Z 16
_cell_length_a 10.063632
_cell_length_b 8.332342
_cell_length_c 12.305589
_cell_angle_alpha 98.254820
_cell_angle_beta 56.057541
_cell_angle_gamma 119.326809
_cell_volume 734.191068
_symmetry_space_group_name_H-M "P -1"
_symmetry_group_IT_number 2
_symmetry_cell_setting 'triclinic'
loop_
_space_group_symop_operation_xyz
x,y,z
-x,-y,-z
loop_
_atom_site_type_symbol
_atom_site_label
_atom_site_fract_x
_atom_site_fract_y
_atom_site_fract_z
Si Si1 0.982822 0.919394 0.621225
Si Si2 0.834957 0.542080 0.556919
Si Si3 0.571740 0.751267 0.228285
Si Si4 0.703862 0.056904 0.376071
Si Si5 0.281137 0.521919 0.931640
Si Si6 0.880979 0.395349 0.173649
Si Si7 0.968178 0.255104 0.726664
Si Si8 0.428424 0.808724 0.079770
O O1 0.176044 0.949526 0.580149
O O2 0.848237 0.697575 0.651817
O O3 0.928692 0.044319 0.732622
O O4 0.000000 0.000000 0.500000
O O5 0.634935 0.363315 0.638904
O O6 0.884251 0.641296 0.426571
O O7 0.000000 0.500000 0.500000
O O8 0.642428 0.605110 0.163486
O O9 0.554198 0.825159 0.125467
O O10 0.692309 0.916839 0.272560
O O11 0.799838 0.262772 0.300714
O O12 0.500000 0.000000 0.500000
O O13 0.268128 0.655163 0.857958
O O14 0.396317 0.646712 0.993339
O O15 0.066440 0.396977 0.052912
O O16 0.949499 0.610433 0.194990
O O17 0.775619 0.247007 0.788085
O O18 0.500000 0.000000 0.000000
#
# Coordination Sequence:
#
# PCOD9011131 Si02
#       8
#     2   2   2   2   2   2   2   2
#     4  10  24  40  65  98 134 177 219 267 333 416
#     4  11  21  41  66  95 133 175 216 272 342 400
#     4  12  25  41  69 101 135 171 231 286 331 400
#     4  12  26  42  69 102 136 176 226 279 344 400
#     4  10  24  43  65  96 129 178 232 272 339 392
#     4  10  22  44  68  90 137 177 217 283 339 400
#     4  10  21  40  65  92 127 174 223 261 342 397
#     4  11  24  40  64  93 135 178 219 280 328 397
#
# _framework density 21.792693
#
# number of rings (size 3 to 8) (size 9 to 14) (size 15 to 20)
#    0.000    1.250    1.250    4.125    5.250    3.500 
#    0.000    4.375    0.000    0.000    0.000    0.000 
#    0.000    0.000    0.000    0.000    0.000    0.000 
#
# Total GULP energy -89461.326235 kJ/mol
# GULP energy per Si atom -5591.332890 kJ/mol
# Density = 2.174309 g / cm^3
# Si number density = 21.792693 Si / 1000 Ang^3
#
#
#
# Elastic Constant Matrix: (Units=GPa)
#
#
# Indices 1 2 3 4 5 6 
#
# 1 100.8991 9.3497 24.4129 -2.5502 20.4153 2.6325
# 2 9.3497 97.1593 15.1199 21.1322 1.8210 -0.2503
# 3 24.4129 15.1199 71.4184 5.4384 2.8293 -6.0695
# 4 -2.5502 21.1322 5.4384 34.2869 -9.3851 4.5138
# 5 20.4153 1.8210 2.8293 -9.3851 30.1103 9.2635
# 6 2.6325 -0.2503 -6.0695 4.5138 9.2635 27.7001
#
#
#
# Elastic Compliance Matrix: (Units=1/GPa)
#
#
# Indices 1 2 3 4 5 6 
#
# 1 0.012558 -0.000282 -0.003737 -0.000823 -0.008722 0.001036
# 2 -0.000282 0.012592 -0.001501 -0.008997 -0.004043 0.002630
# 3 -0.003737 -0.001501 0.016281 -0.002926 -0.001301 0.004821
# 4 -0.000823 -0.008997 -0.002926 0.042047 0.018714 -0.013754
# 5 -0.008722 -0.004043 -0.001301 0.018714 0.051394 -0.019729
# 6 0.001036 0.002630 0.004821 -0.013754 -0.019729 0.045922
#
#
# Mechanical properties :
#
#
# Convention : Reuss Voigt Hill
#
# Bulk Modulus (GPa) = 32.90264 40.80465 36.85365
# Shear Modulus (GPa) = 24.75693 33.12578 28.94135
#
# Velocity S-wave (km/s) = 3.37415 3.90300 3.64817
# Velocity P-wave (km/s) = 5.50551 6.25107 5.89010
#
# Compressibility (1/GPa) = 0.03039269
#
# Stress axis : x y z
#
# Youngs Moduli (GPa) = 79.63069 79.41301 61.42089
#
# Poissons Ratio (x) = 0.02237 0.22952
# Poissons Ratio (y) = 0.02244 0.09219
# Poissons Ratio (z) = 0.29756 0.11919
#
# Static dielectric constant tensor:
#      x y z
#    x 1.781830 -0.003410 0.028400 
#    y -0.003410 1.812640 0.032330 
#    z 0.028400 0.032330 1.817970 
# 
# From -- ./inp_files/299495.got.cif
#   From: 2010.05.17/outbox.cif.g08.bks.cpg/sg2_150_cif.got.tgz:299495.got - 2010.06.03 11:33:40.
