data_PCOD9011847
_publ_section_title
;
Structure prediction by ZEFSAII (Michael W. Deem and Ramdas Pophale) SiO2 
 PCOD9011847
Probable space group: P -1
;
_chemical_formula_sum "Si O2"
_cell_formula_units_Z 15
_cell_length_a 8.955247
_cell_length_b 8.722769
_cell_length_c 10.972505
_cell_angle_alpha 90.163566
_cell_angle_beta 71.191399
_cell_angle_gamma 130.687087
_cell_volume 589.002453
_symmetry_space_group_name_H-M "P -1"
_symmetry_group_IT_number 2
_symmetry_cell_setting 'triclinic'
loop_
_space_group_symop_operation_xyz
x,y,z
-x,-y,-z
loop_
_atom_site_type_symbol
_atom_site_label
_atom_site_fract_x
_atom_site_fract_y
_atom_site_fract_z
Si Si1 0.160927 0.879015 0.529647
Si Si2 0.168260 0.461868 0.071977
Si Si3 0.201832 0.135743 0.036799
Si Si4 0.007359 0.946277 0.332230
Si Si5 0.692403 0.255794 0.194819
Si Si6 0.500000 0.500000 0.500000
Si Si7 0.442194 0.855214 0.131065
Si Si8 0.364611 0.720490 0.515046
O O1 0.179346 0.708956 0.515239
O O2 0.135626 0.949519 0.408003
O O3 0.989744 0.866116 0.650333
O O4 0.387450 0.052850 0.544365
O O5 0.246194 0.340815 0.061051
O O6 0.217256 0.619664 0.165158
O O7 0.909582 0.299020 0.125291
O O8 0.285186 0.608091 0.920246
O O9 0.395494 0.179483 0.919373
O O10 0.127521 0.992572 0.175352
O O11 0.000000 0.000000 0.000000
O O12 0.753458 0.730173 0.402412
O O13 0.676709 0.329952 0.328049
O O14 0.497671 0.003695 0.227792
O O15 0.389977 0.569844 0.452741
O O16 0.500000 0.000000 0.000000
#
# Coordination Sequence:
#
# PCOD9011847 Si02
#       8
#     2   2   2   2   2   1   2   2
#     4   9  21  43  68  92 124 186 226 279 351 401
#     4  10  22  40  63 101 137 184 228 267 347 422
#     4  12  24  41  67  99 143 187 223 285 352 410
#     4  10  23  43  68  97 139 176 235 288 339 416
#     4  10  21  40  67  95 142 174 223 292 338 412
#     4  10  24  42  66 106 130 172 240 288 346 416
#     4  10  23  41  62  98 136 180 234 272 342 419
#     4  10  21  41  69  95 131 175 224 289 355 399
#
# _framework density 25.466787
#
# number of rings (size 3 to 8) (size 9 to 14) (size 15 to 20)
#    0.000    1.867    1.333    1.200    5.600    0.533 
#    0.000    2.667    0.000    0.000    0.000    0.000 
#    0.000    0.000    0.000    0.000    0.000    0.000 
#
# Total GULP energy -83512.671175 kJ/mol
# GULP energy per Si atom -5567.511412 kJ/mol
# Density = 2.540882 g / cm^3
# Si number density = 25.466787 Si / 1000 Ang^3
#
#
#
# Elastic Constant Matrix: (Units=GPa)
#
#
# Indices 1 2 3 4 5 6 
#
# 1 149.7136 25.5321 6.8797 -1.8675 -0.2522 -24.7561
# 2 25.5321 104.9900 -2.0646 -0.6869 -3.4128 -3.1651
# 3 6.8797 -2.0646 74.8882 1.7414 8.9718 14.3807
# 4 -1.8675 -0.6869 1.7414 11.9658 3.8061 4.3365
# 5 -0.2522 -3.4128 8.9718 3.8061 29.9756 0.4411
# 6 -24.7561 -3.1651 14.3807 4.3365 0.4411 23.3095
#
#
#
# Elastic Compliance Matrix: (Units=1/GPa)
#
#
# Indices 1 2 3 4 5 6 
#
# 1 0.009084 -0.001900 -0.003225 -0.002854 0.001013 0.011891
# 2 -0.001900 0.009998 0.000534 0.000284 0.000942 -0.001061
# 3 -0.003225 0.000534 0.016992 0.004003 -0.005347 -0.014480
# 4 -0.002854 0.000284 0.004003 0.094959 -0.012910 -0.022884
# 5 0.001013 0.000942 -0.005347 -0.012910 0.036625 0.006211
# 6 0.011891 -0.001061 -0.014480 -0.022884 0.006211 0.068459
#
#
# Mechanical properties :
#
#
# Convention : Reuss Voigt Hill
#
# Bulk Modulus (GPa) = 37.18509 43.36516 40.27512
# Shear Modulus (GPa) = 19.66467 32.99983 26.33225
#
# Velocity S-wave (km/s) = 2.78181 3.60363 3.21905
# Velocity P-wave (km/s) = 4.99510 5.86344 5.44660
#
# Compressibility (1/GPa) = 0.02689250
#
# Stress axis : x y z
#
# Youngs Moduli (GPa) = 110.08292 100.02269 58.85008
#
# Poissons Ratio (x) = 0.19002 0.18981
# Poissons Ratio (y) = 0.20914 -0.03145
# Poissons Ratio (z) = 0.35506 -0.05345
#
# Static dielectric constant tensor:
#      x y z
#    x 1.998400 -0.100230 0.067260 
#    y -0.100230 2.033740 0.173340 
#    z 0.067260 0.173340 1.933770 
# 
# From -- ./inp_files/379160.got.cif
#   From: 2010.05.17/outbox.cif.g08.bks.cpg/sg2_190_cif.got.tgz:379160.got - 2010.06.03 11:33:40.
