data_PCOD9012735
_publ_section_title
;
Structure prediction by ZEFSAII (Michael W. Deem and Ramdas Pophale) SiO2 
 PCOD9012735
Probable space group: P -1
;
_chemical_formula_sum "Si O2"
_cell_formula_units_Z 12
_cell_length_a 13.778839
_cell_length_b 14.611617
_cell_length_c 10.084430
_cell_angle_alpha 50.843830
_cell_angle_beta 109.037213
_cell_angle_gamma 152.780414
_cell_volume 538.777529
_symmetry_space_group_name_H-M "P -1"
_symmetry_group_IT_number 2
_symmetry_cell_setting 'triclinic'
loop_
_space_group_symop_operation_xyz
x,y,z
-x,-y,-z
loop_
_atom_site_type_symbol
_atom_site_label
_atom_site_fract_x
_atom_site_fract_y
_atom_site_fract_z
Si Si1 0.402606 0.463456 0.157552
Si Si2 0.789821 0.207934 0.574380
Si Si3 0.174815 0.238636 0.540718
Si Si4 0.965298 0.775444 0.959050
Si Si5 0.008075 0.835888 0.231881
Si Si6 0.143357 0.590491 0.856612
O O1 0.357220 0.459102 0.291128
O O2 0.313566 0.470600 0.010293
O O3 0.155878 0.103374 0.347621
O O4 0.732375 0.790543 0.990489
O O5 0.866805 0.154158 0.675160
O O6 0.842529 0.307861 0.356455
O O7 0.000000 0.500000 0.500000
O O8 0.466674 0.896707 0.749817
O O9 0.210659 0.354015 0.581997
O O10 0.188392 0.115295 0.701736
O O11 0.017589 0.701477 0.994184
O O12 0.922264 0.728013 0.140478
O O13 0.000000 0.500000 0.000000
#
# Coordination Sequence:
#
# PCOD9012735 Si02
#       6
#     2   2   2   2   2   2
#     4   9  21  39  57  88 127 151 206 247 299 370
#     4  11  24  43  64  95 124 161 217 260 302 378
#     4   9  21  40  61  90 124 159 199 252 314 363
#     4  10  21  41  59  93 125 155 211 251 301 381
#     4  12  21  38  66  88 124 163 198 258 313 361
#     4  11  25  44  66  89 128 169 206 262 315 364
#
# _framework density 22.272644
#
# number of rings (size 3 to 8) (size 9 to 14) (size 15 to 20)
#    1.000    0.667    3.333    1.000    2.333    1.333 
#    3.000    1.667    0.000    0.000    0.000    0.000 
#    0.000    0.000    0.000    0.000    0.000    0.000 
#
# Total GULP energy -67001.506007 kJ/mol
# GULP energy per Si atom -5583.458834 kJ/mol
# Density = 2.222195 g / cm^3
# Si number density = 22.272644 Si / 1000 Ang^3
#
#
#
# Elastic Constant Matrix: (Units=GPa)
#
#
# Indices 1 2 3 4 5 6 
#
# 1 143.0839 54.7294 76.5843 27.8193 -10.9407 -14.9859
# 2 54.7294 90.5492 54.6013 31.6562 -7.8913 -0.0783
# 3 76.5843 54.6013 107.2771 34.6499 -25.6647 -0.7430
# 4 27.8193 31.6562 34.6499 40.8600 -9.9551 -2.7330
# 5 -10.9407 -7.8913 -25.6647 -9.9551 44.4884 10.1047
# 6 -14.9859 -0.0783 -0.7430 -2.7330 10.1047 27.3852
#
#
#
# Elastic Compliance Matrix: (Units=1/GPa)
#
#
# Indices 1 2 3 4 5 6 
#
# 1 0.013708 -0.003249 -0.009342 0.000612 -0.004492 0.008957
# 2 -0.003249 0.018885 -0.004867 -0.008861 -0.001765 -0.002089
# 3 -0.009342 -0.004867 0.023490 -0.007789 0.010744 -0.009231
# 4 0.000612 -0.008861 -0.007789 0.038207 0.001906 0.003208
# 5 -0.004492 -0.001765 0.010744 0.001906 0.030708 -0.013313
# 6 0.008957 -0.002089 -0.009231 0.003208 -0.013313 0.046394
#
#
# Mechanical properties :
#
#
# Convention : Reuss Voigt Hill
#
# Bulk Modulus (GPa) = 47.24578 79.19334 63.21956
# Shear Modulus (GPa) = 23.43418 32.87973 28.15696
#
# Velocity S-wave (km/s) = 3.24721 3.84635 3.55941
# Velocity P-wave (km/s) = 5.94287 7.44039 6.73339
#
# Compressibility (1/GPa) = 0.02116591
#
# Stress axis : x y z
#
# Youngs Moduli (GPa) = 72.95040 52.95318 42.57080
#
# Poissons Ratio (x) = 0.17207 0.39771
# Poissons Ratio (y) = 0.23705 0.20718
# Poissons Ratio (z) = 0.68153 0.25771
#
# Static dielectric constant tensor:
#      x y z
#    x 1.806700 -0.008800 0.025030 
#    y -0.008800 1.899880 -0.054290 
#    z 0.025030 -0.054290 1.822110 
# 
# From -- ./inp_files/287551.got.cif
#   From: 2010.05.17/outbox.cif.g08.bks.cpg/sg2_144_cif.got.tgz:287551.got - 2010.06.03 11:33:40.
