data_PCOD9012548
_publ_section_title
;
Structure prediction by ZEFSAII (Michael W. Deem and Ramdas Pophale) SiO2 
 PCOD9012548
Probable space group: P -1
;
_chemical_formula_sum "Si O2"
_cell_formula_units_Z 12
_cell_length_a 8.160850
_cell_length_b 8.151170
_cell_length_c 12.741003
_cell_angle_alpha 114.926405
_cell_angle_beta 36.150059
_cell_angle_gamma 122.462045
_cell_volume 421.721746
_symmetry_space_group_name_H-M "P -1"
_symmetry_group_IT_number 2
_symmetry_cell_setting 'triclinic'
loop_
_space_group_symop_operation_xyz
x,y,z
-x,-y,-z
loop_
_atom_site_type_symbol
_atom_site_label
_atom_site_fract_x
_atom_site_fract_y
_atom_site_fract_z
Si Si1 0.902599 0.779998 0.450668
Si Si2 0.433659 0.551884 0.930518
Si Si3 0.933575 0.235471 0.872941
Si Si4 0.024300 0.865911 0.751270
Si Si5 0.680108 0.266411 0.624913
Si Si6 0.669955 0.160558 0.217277
O O1 0.545044 0.720648 0.611883
O O2 0.072373 0.795604 0.258412
O O3 0.014733 0.657173 0.441235
O O4 0.000000 0.000000 0.500000
O O5 0.515366 0.414722 0.769647
O O6 0.687480 0.771970 0.854971
O O7 0.500000 0.500000 0.000000
O O8 0.119053 0.560035 0.059519
O O9 0.737236 0.166027 0.061523
O O10 0.130750 0.099562 0.754930
O O11 0.222176 0.789465 0.552258
O O12 0.052539 0.793769 0.834152
O O13 0.500130 0.064616 0.722729
#
# Coordination Sequence:
#
# PCOD9012548 Si02
#       6
#     2   2   2   2   2   2
#     4  10  21  40  71 100 132 179 233 271 337 401
#     4  12  26  44  69 102 140 178 234 286 340 405
#     4  12  24  43  73 101 135 186 233 274 339 418
#     4  12  25  45  72 103 136 185 231 281 342 410
#     4  11  23  45  71 102 137 181 229 285 341 405
#     4  11  25  45  73 103 140 177 234 283 338 410
#
# _framework density 28.454781000000001
#
# number of rings (size 3 to 8) (size 9 to 14) (size 15 to 20)
#    0.000    0.667    5.000    4.000    4.667    0.000 
#    0.000    6.667    0.000    0.000    0.000    0.000 
#    0.000    0.000    0.000    0.000    0.000    0.000 
#
# Total GULP energy -66999.298399 kJ/mol
# GULP energy per Si atom -5583.274867 kJ/mol
# Density = 2.839002 g / cm^3
# Si number density = 28.454781 Si / 1000 Ang^3
#
#
#
# Elastic Constant Matrix: (Units=GPa)
#
#
# Indices 1 2 3 4 5 6 
#
# 1 119.7507 38.3398 40.6411 26.4734 0.9022 -9.0571
# 2 38.3398 96.4620 55.5163 33.7548 -7.8336 -25.1139
# 3 40.6411 55.5163 172.0749 34.6692 45.6462 -9.8581
# 4 26.4734 33.7548 34.6692 54.2517 -16.6804 -18.7076
# 5 0.9022 -7.8336 45.6462 -16.6804 46.6205 -3.3760
# 6 -9.0571 -25.1139 -9.8581 -18.7076 -3.3760 58.3352
#
#
#
# Elastic Compliance Matrix: (Units=1/GPa)
#
#
# Indices 1 2 3 4 5 6 
#
# 1 0.010190 -0.003052 -0.000088 -0.004095 -0.002174 -0.001186
# 2 -0.003052 0.019082 -0.008950 0.002077 0.013327 0.007666
# 3 -0.000088 -0.008950 0.018865 -0.017354 -0.026746 -0.007792
# 4 -0.004095 0.002077 -0.017354 0.045764 0.034809 0.014016
# 5 -0.002174 0.013327 -0.026746 0.034809 0.063511 0.015718
# 6 -0.001186 0.007666 -0.007792 0.014016 0.015718 0.024346
#
#
# Mechanical properties :
#
#
# Convention : Reuss Voigt Hill
#
# Bulk Modulus (GPa) = 41.74231 73.03133 57.38682
# Shear Modulus (GPa) = 23.37292 48.76084 36.06688
#
# Velocity S-wave (km/s) = 2.86913 4.14409 3.56408
# Velocity P-wave (km/s) = 5.06729 6.97276 6.09495
#
# Compressibility (1/GPa) = 0.02395651
#
# Stress axis : x y z
#
# Youngs Moduli (GPa) = 98.13991 52.40544 53.00876
#
# Poissons Ratio (x) = 0.15992 0.00468
# Poissons Ratio (y) = 0.29948 0.47443
# Poissons Ratio (z) = 0.00866 0.46903
#
# Static dielectric constant tensor:
#      x y z
#    x 2.509010 0.140600 -0.245580 
#    y 0.140600 2.272750 -0.093580 
#    z -0.245580 -0.093580 2.159340 
# 
# From -- ./inp_files/163449.got.cif
#   From: 2010.05.17/outbox.cif.g08.bks.cpg/sg2_82_cif.got.tgz:163449.got - 2010.06.03 11:33:40.
