data_PCOD9012027
_publ_section_title
;
Structure prediction by ZEFSAII (Michael W. Deem and Ramdas Pophale) SiO2 
 PCOD9012027
Probable space group: P -1
;
_chemical_formula_sum "Si O2"
_cell_formula_units_Z 16
_cell_length_a 8.339957
_cell_length_b 11.366222
_cell_length_c 20.116986
_cell_angle_alpha 158.255139
_cell_angle_beta 70.707582
_cell_angle_gamma 110.445714
_cell_volume 661.879143
_symmetry_space_group_name_H-M "P -1"
_symmetry_group_IT_number 2
_symmetry_cell_setting 'triclinic'
loop_
_space_group_symop_operation_xyz
x,y,z
-x,-y,-z
loop_
_atom_site_type_symbol
_atom_site_label
_atom_site_fract_x
_atom_site_fract_y
_atom_site_fract_z
Si Si1 0.399770 0.933328 0.199702
Si Si2 0.166265 0.399426 0.886679
Si Si3 0.076942 0.698765 0.362446
Si Si4 0.342385 0.334576 0.175717
Si Si5 0.833787 0.658216 0.487341
Si Si6 0.937919 0.211760 0.014390
Si Si7 0.211280 0.930118 0.733519
Si Si8 0.549911 0.251514 0.225234
O O1 0.255721 0.030923 0.320409
O O2 0.588260 0.977585 0.228051
O O3 0.412940 0.178575 0.264340
O O4 0.332015 0.593529 0.000342
O O5 0.151165 0.534951 0.885922
O O6 0.173800 0.040408 0.722314
O O7 0.000000 0.500000 0.000000
O O8 0.273750 0.639190 0.311550
O O9 0.009512 0.704572 0.449516
O O10 0.002560 0.394687 0.168328
O O11 0.000000 0.000000 0.500000
O O12 0.483507 0.415920 0.255785
O O13 0.191946 0.098279 0.110090
O O14 0.406673 0.094521 0.986819
O O15 0.835989 0.439490 0.436796
O O16 0.709021 0.455237 0.344911
O O17 0.094508 0.105540 0.893792
#
# Coordination Sequence:
#
# PCOD9012027 Si02
#       8
#     2   2   2   2   2   2   2   2
#     4  11  22  41  62  97 130 164 213 256 318 379
#     4  10  23  40  63  96 125 161 213 265 307 370
#     4  12  26  43  63  96 130 169 209 267 326 377
#     4  11  21  43  71  91 125 167 224 261 313 387
#     4  11  23  42  64  93 132 167 208 254 323 388
#     4  11  21  44  66  93 124 164 222 260 308 385
#     4  10  21  40  68  91 123 172 209 260 312 368
#     4  10  21  40  71  96 121 170 218 266 311 375
#
# _framework density 24.173598999999999
#
# number of rings (size 3 to 8) (size 9 to 14) (size 15 to 20)
#    0.000    1.250    3.750    3.750    3.500    0.000 
#    6.750    3.750    0.000    0.000    0.000    0.000 
#    0.000    0.000    0.000    0.000    0.000    0.000 
#
# Total GULP energy -89455.215328 kJ/mol
# GULP energy per Si atom -5590.950958 kJ/mol
# Density = 2.411858 g / cm^3
# Si number density = 24.173599 Si / 1000 Ang^3
#
#
#
# Elastic Constant Matrix: (Units=GPa)
#
#
# Indices 1 2 3 4 5 6 
#
# 1 57.7981 20.2696 31.2569 3.0887 -17.4447 -25.4401
# 2 20.2696 70.1127 26.9710 -3.0491 -13.3117 -17.6774
# 3 31.2569 26.9710 57.2330 -7.8972 -18.9890 -15.0827
# 4 3.0887 -3.0491 -7.8972 39.2576 -2.4615 -11.2675
# 5 -17.4447 -13.3117 -18.9890 -2.4615 39.8458 2.1961
# 6 -25.4401 -17.6774 -15.0827 -11.2675 2.1961 40.7667
#
#
#
# Elastic Compliance Matrix: (Units=1/GPa)
#
#
# Indices 1 2 3 4 5 6 
#
# 1 0.032724 0.000463 -0.010969 0.000440 0.008387 0.016234
# 2 0.000463 0.018860 -0.005867 0.002411 0.003483 0.006776
# 3 -0.010969 -0.005867 0.031239 0.008376 0.008421 0.004030
# 4 0.000440 0.002411 0.008376 0.031361 0.006225 0.012752
# 5 0.008387 0.003483 0.008421 0.006225 0.033792 0.009760
# 6 0.016234 0.006776 0.004030 0.012752 0.009760 0.042088
#
#
# Mechanical properties :
#
#
# Convention : Reuss Voigt Hill
#
# Bulk Modulus (GPa) = 19.96839 38.01540 28.99189
# Shear Modulus (GPa) = 20.87668 31.08377 25.98023
#
# Velocity S-wave (km/s) = 2.94192 3.58977 3.28187
# Velocity P-wave (km/s) = 4.45176 5.73952 5.13616
#
# Compressibility (1/GPa) = 0.05007916
#
# Stress axis : x y z
#
# Youngs Moduli (GPa) = 30.55859 53.02170 32.01094
#
# Poissons Ratio (x) = -0.02457 0.35112
# Poissons Ratio (y) = -0.01416 0.18781
# Poissons Ratio (z) = 0.33519 0.31107
#
# Static dielectric constant tensor:
#      x y z
#    x 1.961770 -0.000880 -0.012590 
#    y -0.000880 1.949830 0.054290 
#    z -0.012590 0.054290 1.919510 
# 
# From -- ./inp_files/257616.got.cif
#   From: 2010.05.17/outbox.cif.g08.bks.cpg/sg2_129_cif.got.tgz:257616.got - 2010.06.03 11:33:40.
