data_PCOD9012022
_publ_section_title
;
Structure prediction by ZEFSAII (Michael W. Deem and Ramdas Pophale) SiO2 
 PCOD9012022
Probable space group: P -1
;
_chemical_formula_sum "Si O2"
_cell_formula_units_Z 16
_cell_length_a 20.299248
_cell_length_b 8.651089
_cell_length_c 11.271860
_cell_angle_alpha 124.349430
_cell_angle_beta 27.968629
_cell_angle_gamma 129.650528
_cell_volume 714.776632
_symmetry_space_group_name_H-M "P -1"
_symmetry_group_IT_number 2
_symmetry_cell_setting 'triclinic'
loop_
_space_group_symop_operation_xyz
x,y,z
-x,-y,-z
loop_
_atom_site_type_symbol
_atom_site_label
_atom_site_fract_x
_atom_site_fract_y
_atom_site_fract_z
Si Si1 0.665972 0.604110 0.234023
Si Si2 0.867292 0.966520 0.962585
Si Si3 0.607751 0.260892 0.992940
Si Si4 0.837456 0.471801 0.090642
Si Si5 0.082264 0.741170 0.481117
Si Si6 0.161011 0.652995 0.709349
Si Si7 0.475947 0.854475 0.163684
Si Si8 0.226240 0.938472 0.093013
O O1 0.500000 0.500000 0.500000
O O2 0.777894 0.612551 0.168078
O O3 0.708163 0.821264 0.204816
O O4 0.674238 0.459069 0.051083
O O5 0.983639 0.853454 0.749096
O O6 0.853513 0.987979 0.853002
O O7 0.896111 0.176209 0.071315
O O8 0.755210 0.213859 0.698881
O O9 0.523703 0.272228 0.010816
O O10 0.506829 0.077896 0.157097
O O11 0.816489 0.468093 0.263755
O O12 0.742781 0.248940 0.097035
O O13 0.015769 0.517941 0.806824
O O14 0.126372 0.841116 0.324141
O O15 0.000000 0.500000 0.500000
O O16 0.317963 0.752724 0.436482
O O17 0.619737 0.892387 0.035193
#
# Coordination Sequence:
#
# PCOD9012022 Si02
#       8
#     2   2   2   2   2   2   2   2
#     4  12  24  41  66  95 131 167 212 268 316 388
#     4  11  24  38  63  98 128 167 219 262 322 369
#     4  10  22  41  63  96 123 170 215 252 325 384
#     4  10  22  44  64  94 128 169 217 252 330 379
#     4  11  20  40  66  90 125 172 208 263 315 385
#     4  10  24  41  66  97 127 168 212 271 313 380
#     4  10  21  40  68  90 129 165 213 262 318 381
#     4  10  22  41  66  93 128 171 215 262 318 386
#
# _framework density 22.384616000000001
#
# number of rings (size 3 to 8) (size 9 to 14) (size 15 to 20)
#    0.000    1.500    3.750    1.125    5.250    1.500 
#    6.750    0.625    0.000    0.000    0.000    0.000 
#    0.000    0.000    0.000    0.000    0.000    0.000 
#
# Total GULP energy -89353.851198 kJ/mol
# GULP energy per Si atom -5584.615700 kJ/mol
# Density = 2.233367 g / cm^3
# Si number density = 22.384616 Si / 1000 Ang^3
#
#
#
# Elastic Constant Matrix: (Units=GPa)
#
#
# Indices 1 2 3 4 5 6 
#
# 1 83.1035 25.9253 17.5583 -5.4222 -2.8578 10.6504
# 2 25.9253 61.0474 16.7634 -21.0301 3.0284 -1.4668
# 3 17.5583 16.7634 89.1547 -28.1066 4.4923 -2.0001
# 4 -5.4222 -21.0301 -28.1066 40.2199 -2.4697 2.0216
# 5 -2.8578 3.0284 4.4923 -2.4697 19.5144 -7.4899
# 6 10.6504 -1.4668 -2.0001 2.0216 -7.4899 27.3903
#
#
#
# Elastic Compliance Matrix: (Units=1/GPa)
#
#
# Indices 1 2 3 4 5 6 
#
# 1 0.015476 -0.007113 -0.002958 -0.003316 0.001326 -0.006007
# 2 -0.007113 0.023331 0.000833 0.011545 -0.002408 0.002565
# 3 -0.002958 0.000833 0.015049 0.010363 -0.002378 0.000878
# 4 -0.003316 0.011545 0.010363 0.037704 0.000071 -0.000099
# 5 0.001326 -0.002408 -0.002378 0.000071 0.058156 0.015080
# 6 -0.006007 0.002565 0.000878 -0.000099 0.015080 0.043178
#
#
# Mechanical properties :
#
#
# Convention : Reuss Voigt Hill
#
# Bulk Modulus (GPa) = 28.26381 39.31105 33.78743
# Shear Modulus (GPa) = 22.40517 28.96215 25.68366
#
# Velocity S-wave (km/s) = 3.16716 3.60090 3.39097
# Velocity P-wave (km/s) = 5.10180 5.90664 5.51891
#
# Compressibility (1/GPa) = 0.03538093
#
# Stress axis : x y z
#
# Youngs Moduli (GPa) = 64.61599 42.86142 66.45006
#
# Poissons Ratio (x) = 0.30486 0.19653
# Poissons Ratio (y) = 0.45959 -0.05533
# Poissons Ratio (z) = 0.19110 -0.03569
#
# Static dielectric constant tensor:
#      x y z
#    x 1.863660 0.005140 0.006110 
#    y 0.005140 1.837590 0.001170 
#    z 0.006110 0.001170 1.860220 
# 
# From -- ./inp_files/470076.got.cif
#   From: 2010.05.17/outbox.cif.g08.bks.cpg/sg2_236_cif.got.tgz:470076.got - 2010.06.03 11:33:40.
