data_PCOD9012415
_publ_section_title
;
Structure prediction by ZEFSAII (Michael W. Deem and Ramdas Pophale) SiO2 
 PCOD9012415
Probable space group: P -1
;
_chemical_formula_sum "Si O2"
_cell_formula_units_Z 14
_cell_length_a 4.950048
_cell_length_b 22.765263
_cell_length_c 5.716696
_cell_angle_alpha 125.341911
_cell_angle_beta 86.023901
_cell_angle_gamma 84.658279
_cell_volume 517.155221
_symmetry_space_group_name_H-M "P -1"
_symmetry_group_IT_number 2
_symmetry_cell_setting 'triclinic'
loop_
_space_group_symop_operation_xyz
x,y,z
-x,-y,-z
loop_
_atom_site_type_symbol
_atom_site_label
_atom_site_fract_x
_atom_site_fract_y
_atom_site_fract_z
Si Si1 0.587369 0.833977 0.313246
Si Si2 0.829177 0.446812 0.117796
Si Si3 0.297722 0.137239 0.145400
Si Si4 0.372620 0.753612 0.483750
Si Si5 0.754266 0.012156 0.359657
Si Si6 0.913076 0.668875 0.483861
Si Si7 0.341801 0.407953 0.312716
O O1 0.794681 0.832782 0.520231
O O2 0.420250 0.769006 0.242751
O O3 0.354180 0.906044 0.524571
O O4 0.744707 0.839145 0.071378
O O5 0.641856 0.398308 0.161927
O O6 0.670425 0.528778 0.341500
O O7 0.124880 0.442104 0.209530
O O8 0.902608 0.407603 0.778730
O O9 0.592237 0.168437 0.218112
O O10 0.235020 0.054663 0.975384
O O11 0.639273 0.695587 0.411136
O O12 0.112377 0.726008 0.543880
O O13 0.500000 0.000000 0.500000
O O14 0.000000 0.000000 0.500000
O O15 0.790421 0.656866 0.715460
#
# Coordination Sequence:
#
# PCOD9012415 Si02
#       7
#     2   2   2   2   2   2   2
#     4   9  21  44  65  98 134 179 229 289 349 417
#     4  10  22  40  66  98 132 173 224 286 344 403
#     4   9  21  44  65  98 134 179 229 289 349 417
#     4  10  26  37  65  90 136 182 232 276 350 416
#     4  10  21  40  70 100 132 174 228 294 354 409
#     4  12  23  44  62  99 128 188 224 282 340 421
#     4  10  22  40  66  98 132 173 224 286 344 403
#
# _framework density 27.071175
#
# number of rings (size 3 to 8) (size 9 to 14) (size 15 to 20)
#    0.857    1.143    0.000    2.571    0.000    8.000 
#    0.000   11.429    0.000    0.000    0.000    0.000 
#    0.000    0.000    0.000    0.000    0.000    0.000 
#
# Total GULP energy -78009.862617 kJ/mol
# GULP energy per Si atom -5572.133044 kJ/mol
# Density = 2.700956 g / cm^3
# Si number density = 27.071175 Si / 1000 Ang^3
#
#
#
# Elastic Constant Matrix: (Units=GPa)
#
#
# Indices 1 2 3 4 5 6 
#
# 1 150.5456 40.2386 40.2774 3.8168 -12.0356 20.2979
# 2 40.2386 120.4579 24.7558 -19.8042 -7.7790 16.8909
# 3 40.2774 24.7558 114.9334 -9.3190 -19.5909 8.7798
# 4 3.8168 -19.8042 -9.3190 36.5894 5.5397 0.6588
# 5 -12.0356 -7.7790 -19.5909 5.5397 38.0623 -1.0562
# 6 20.2979 16.8909 8.7798 0.6588 -1.0562 44.2522
#
#
#
# Elastic Compliance Matrix: (Units=1/GPa)
#
#
# Indices 1 2 3 4 5 6 
#
# 1 0.008391 -0.002393 -0.002243 -0.002905 0.001365 -0.002414
# 2 -0.002393 0.010627 -0.000737 0.005850 0.000104 -0.002897
# 3 -0.002243 -0.000737 0.010586 0.001894 0.004293 -0.000716
# 4 -0.002905 0.005850 0.001894 0.031835 -0.003432 -0.001832
# 5 0.001365 0.000104 0.004293 -0.003432 0.029414 -0.000765
# 6 -0.002414 -0.002897 -0.000716 -0.001832 -0.000765 0.024962
#
#
# Mechanical properties :
#
#
# Convention : Reuss Voigt Hill
#
# Bulk Modulus (GPa) = 53.03065 66.27561 59.65313
# Shear Modulus (GPa) = 37.63753 42.49178 40.06466
#
# Velocity S-wave (km/s) = 3.73274 3.96616 3.85122
# Velocity P-wave (km/s) = 6.18140 6.74604 6.46988
#
# Compressibility (1/GPa) = 0.01885702
#
# Stress axis : x y z
#
# Youngs Moduli (GPa) = 119.18138 94.09800 94.46770
#
# Poissons Ratio (x) = 0.22514 0.21193
# Poissons Ratio (y) = 0.28516 0.06963
# Poissons Ratio (z) = 0.26737 0.06936
#
# Static dielectric constant tensor:
#      x y z
#    x 2.083720 -0.001090 0.038500 
#    y -0.001090 2.344050 0.167920 
#    z 0.038500 0.167920 2.272490 
# 
# From -- ./inp_files/12577.got.cif
#   From: 2010.05.17/outbox.cif.g08.bks.cpg/sg2_7_cif.got.tgz:12577.got - 2010.06.03 11:33:40.
