data_PCOD9012785
_publ_section_title
;
Structure prediction by ZEFSAII (Michael W. Deem and Ramdas Pophale) SiO2 
 PCOD9012785
Probable space group: P -1
;
_chemical_formula_sum "Si O2"
_cell_formula_units_Z 10
_cell_length_a 7.150164
_cell_length_b 6.166945
_cell_length_c 16.320570
_cell_angle_alpha 73.638635
_cell_angle_beta 104.504908
_cell_angle_gamma 137.484698
_cell_volume 465.616977
_symmetry_space_group_name_H-M "P -1"
_symmetry_group_IT_number 2
_symmetry_cell_setting 'triclinic'
loop_
_space_group_symop_operation_xyz
x,y,z
-x,-y,-z
loop_
_atom_site_type_symbol
_atom_site_label
_atom_site_fract_x
_atom_site_fract_y
_atom_site_fract_z
Si Si1 0.213972 0.474488 0.522534
Si Si2 0.784101 0.623784 0.813820
Si Si3 0.760423 0.769578 0.611718
Si Si4 0.721577 0.758265 0.097389
Si Si5 0.137404 0.763156 0.059136
O O1 0.511090 0.738269 0.571056
O O2 0.000000 0.500000 0.500000
O O3 0.730242 0.551265 0.562396
O O4 0.051845 0.133565 0.585748
O O5 0.748516 0.663666 0.712429
O O6 0.556910 0.548669 0.855826
O O7 0.739553 0.319024 0.857408
O O8 0.082836 0.952878 0.845048
O O9 0.903355 0.711155 0.084652
O O10 0.669921 0.895457 0.003928
O O11 0.000000 0.500000 0.000000
#
# Coordination Sequence:
#
# PCOD9012785 Si02
#       5
#     2   2   2   2   2
#     4  10  21  41  61  81 114 152 183 229 288 340
#     4  11  22  37  57  87 117 145 189 240 277 326
#     4  10  22  37  59  88 113 144 192 232 277 342
#     4  10  22  38  58  83 116 154 192 227 278 335
#     4   9  21  39  59  82 115 156 190 230 280 330
#
# _framework density 21.476879
#
# number of rings (size 3 to 8) (size 9 to 14) (size 15 to 20)
#    0.000    2.000    0.000    2.400    0.000   13.600 
#    0.000    0.000    0.000    0.000    0.000    0.000 
#    0.000    0.000    0.000    0.000    0.000    0.000 
#
# Total GULP energy -55906.264823 kJ/mol
# GULP energy per Si atom -5590.626482 kJ/mol
# Density = 2.142800 g / cm^3
# Si number density = 21.476879 Si / 1000 Ang^3
#
#
#
# Elastic Constant Matrix: (Units=GPa)
#
#
# Indices 1 2 3 4 5 6 
#
# 1 103.9381 6.7549 50.3030 3.9984 1.4899 -2.8964
# 2 6.7549 45.9229 23.1300 3.5895 -2.4935 20.5011
# 3 50.3030 23.1300 181.7126 -1.6278 -2.8545 -2.9146
# 4 3.9984 3.5895 -1.6278 16.0787 8.2700 -1.1547
# 5 1.4899 -2.4935 -2.8545 8.2700 20.8927 -2.9222
# 6 -2.8964 20.5011 -2.9146 -1.1547 -2.9222 37.2659
#
#
#
# Elastic Compliance Matrix: (Units=1/GPa)
#
#
# Indices 1 2 3 4 5 6 
#
# 1 0.011275 -0.000109 -0.003124 -0.003084 0.000061 0.000601
# 2 -0.000109 0.033808 -0.004598 -0.012230 0.005611 -0.018906
# 3 -0.003124 -0.004598 0.007024 0.002748 -0.000046 0.002918
# 4 -0.003084 -0.012230 0.002748 0.083391 -0.032935 0.006704
# 5 0.000061 0.005611 -0.000046 -0.032935 0.061661 0.000729
# 6 0.000601 -0.018906 0.002918 0.006704 0.000729 0.037775
#
#
# Mechanical properties :
#
#
# Convention : Reuss Voigt Hill
#
# Bulk Modulus (GPa) = 27.43871 54.66107 41.04989
# Shear Modulus (GPa) = 19.02990 31.60650 25.31820
#
# Velocity S-wave (km/s) = 2.97991 3.84037 3.43718
# Velocity P-wave (km/s) = 4.96422 6.72094 5.90824
#
# Compressibility (1/GPa) = 0.03644486
#
# Stress axis : x y z
#
# Youngs Moduli (GPa) = 88.69343 29.57873 142.36769
#
# Poissons Ratio (x) = 0.00322 0.44481
# Poissons Ratio (y) = 0.00964 0.65460
# Poissons Ratio (z) = 0.27711 0.13600
#
# Static dielectric constant tensor:
#      x y z
#    x 1.792990 -0.015010 0.022400 
#    y -0.015010 1.814030 -0.003890 
#    z 0.022400 -0.003890 1.734320 
# 
# From -- ./inp_files/2879.got.cif
#   From: 2010.05.17/outbox.cif.g08.bks.cpg/sg2_2_cif.got.tgz:2879.got - 2010.06.03 11:33:40.
