data_PCOD9012302
_publ_section_title
;
Structure prediction by ZEFSAII (Michael W. Deem and Ramdas Pophale) SiO2 
 PCOD9012302
Probable space group: P -1
;
_chemical_formula_sum "Si O2"
_cell_formula_units_Z 16
_cell_length_a 18.790425
_cell_length_b 6.708826
_cell_length_c 10.135771
_cell_angle_alpha 94.061106
_cell_angle_beta 40.394430
_cell_angle_gamma 117.054118
_cell_volume 647.925367
_symmetry_space_group_name_H-M "P -1"
_symmetry_group_IT_number 2
_symmetry_cell_setting 'triclinic'
loop_
_space_group_symop_operation_xyz
x,y,z
-x,-y,-z
loop_
_atom_site_type_symbol
_atom_site_label
_atom_site_fract_x
_atom_site_fract_y
_atom_site_fract_z
Si Si1 0.976866 0.266397 0.152665
Si Si2 0.996109 0.169006 0.404196
Si Si3 0.159161 0.838543 0.924508
Si Si4 0.532470 0.575953 0.684929
Si Si5 0.821876 0.237435 0.823223
Si Si6 0.491356 0.221840 0.500032
Si Si7 0.309189 0.896833 0.377914
Si Si8 0.545858 0.874191 0.093700
O O1 0.989747 0.129864 0.252465
O O2 0.921299 0.141528 0.080294
O O3 0.856622 0.289157 0.374427
O O4 0.117924 0.556540 0.948172
O O5 0.862789 0.148000 0.637631
O O6 0.117442 0.472856 0.264020
O O7 0.000000 0.000000 0.500000
O O8 0.324414 0.072380 0.702127
O O9 0.118849 0.809546 0.133879
O O10 0.556438 0.426038 0.536252
O O11 0.441408 0.622123 0.724737
O O12 0.646160 0.843309 0.605976
O O13 0.464720 0.375500 0.889627
O O14 0.656245 0.058505 0.058417
O O15 0.500000 0.000000 0.500000
O O16 0.396665 0.814257 0.315556
O O17 0.376784 0.972273 0.141390
#
# Coordination Sequence:
#
# PCOD9012302 Si02
#       8
#     2   2   2   2   2   2   2   2
#     4  10  21  42  68  94 132 177 216 276 333 403
#     4  10  22  43  68  94 127 178 222 277 333 394
#     4  10  21  40  69  91 133 175 215 272 336 396
#     4  11  23  39  63  96 133 171 219 280 324 404
#     4  10  21  41  66  95 133 168 227 276 328 398
#     4  11  23  42  67  95 129 179 223 272 337 398
#     4  11  23  42  66  97 137 172 224 279 345 392
#     4  11  23  41  66 100 130 181 221 279 344 395
#
# _framework density 24.694201
#
# number of rings (size 3 to 8) (size 9 to 14) (size 15 to 20)
#    0.000    1.500    3.750    1.125    0.000    1.000 
#    6.750    0.625    0.000    0.000    0.000    0.000 
#    0.000    0.000    0.000    0.000    0.000    0.000 
#
# Total GULP energy -89144.571470 kJ/mol
# GULP energy per Si atom -5571.535717 kJ/mol
# Density = 2.463800 g / cm^3
# Si number density = 24.694201 Si / 1000 Ang^3
#
#
#
# Elastic Constant Matrix: (Units=GPa)
#
#
# Indices 1 2 3 4 5 6 
#
# 1 141.9049 50.1371 23.3456 -15.0336 33.2940 -14.2890
# 2 50.1371 92.7111 24.5992 -8.2214 -1.6788 -15.7035
# 3 23.3456 24.5992 65.6457 -6.6917 9.9888 -2.0844
# 4 -15.0336 -8.2214 -6.6917 25.9249 -0.4073 13.5137
# 5 33.2940 -1.6788 9.9888 -0.4073 35.3723 -15.0057
# 6 -14.2890 -15.7035 -2.0844 13.5137 -15.0057 38.7490
#
#
#
# Elastic Compliance Matrix: (Units=1/GPa)
#
#
# Indices 1 2 3 4 5 6 
#
# 1 0.014515 -0.009292 0.001883 0.010379 -0.018349 -0.009037
# 2 -0.009292 0.019600 -0.007040 -0.007788 0.017329 0.013565
# 3 0.001883 -0.007040 0.019417 0.007931 -0.010942 -0.008117
# 4 0.010379 -0.007788 0.007931 0.058706 -0.023838 -0.028608
# 5 -0.018349 0.017329 -0.010942 -0.023838 0.062898 0.032339
# 6 -0.009037 0.013565 -0.008117 -0.028608 0.032339 0.050036
#
#
# Mechanical properties :
#
#
# Convention : Reuss Voigt Hill
#
# Bulk Modulus (GPa) = 40.59386 55.15840 47.87613
# Shear Modulus (GPa) = 19.06355 33.48790 26.27572
#
# Velocity S-wave (km/s) = 2.78148 3.68653 3.26551
# Velocity P-wave (km/s) = 5.17588 6.36441 5.80067
#
# Compressibility (1/GPa) = 0.02463427
#
# Stress axis : x y z
#
# Youngs Moduli (GPa) = 68.89611 51.02126 51.50010
#
# Poissons Ratio (x) = 0.47407 -0.09697
# Poissons Ratio (y) = 0.64015 0.36257
# Poissons Ratio (z) = -0.12973 0.35920
#
# Static dielectric constant tensor:
#      x y z
#    x 2.098310 -0.015760 0.096940 
#    y -0.015760 1.956310 -0.050590 
#    z 0.096940 -0.050590 2.116890 
# 
# From -- ./inp_files/468113.got.cif
#   From: 2010.05.17/outbox.cif.g08.bks.cpg/sg2_235_cif.got.tgz:468113.got - 2010.06.03 11:33:40.
