data_PCOD9012540
_publ_section_title
;
Structure prediction by ZEFSAII (Michael W. Deem and Ramdas Pophale) SiO2 
 PCOD9012540
Probable space group: P -1
;
_chemical_formula_sum "Si O2"
_cell_formula_units_Z 14
_cell_length_a 11.379121
_cell_length_b 14.430143
_cell_length_c 16.606160
_cell_angle_alpha 33.590945
_cell_angle_beta 23.390277
_cell_angle_gamma 33.607875
_cell_volume 569.222273
_symmetry_space_group_name_H-M "P -1"
_symmetry_group_IT_number 2
_symmetry_cell_setting 'triclinic'
loop_
_space_group_symop_operation_xyz
x,y,z
-x,-y,-z
loop_
_atom_site_type_symbol
_atom_site_label
_atom_site_fract_x
_atom_site_fract_y
_atom_site_fract_z
Si Si1 0.131469 0.676810 0.335972
Si Si2 0.790253 0.602054 0.898102
Si Si3 0.865600 0.163773 0.403252
Si Si4 0.340316 0.352273 0.230445
Si Si5 0.913169 0.018478 0.135068
Si Si6 0.693962 0.754087 0.213223
Si Si7 0.747204 0.099893 0.755085
O O1 0.205702 0.784198 0.286789
O O2 0.924802 0.576426 0.586174
O O3 0.461948 0.593296 0.144824
O O4 0.922961 0.829066 0.298702
O O5 0.760107 0.694780 0.761687
O O6 0.939022 0.704692 0.794202
O O7 0.024163 0.410660 0.870731
O O8 0.501054 0.260702 0.574060
O O9 0.000000 0.000000 0.500000
O O10 0.946124 0.059362 0.345094
O O11 0.592858 0.176055 0.231404
O O12 0.500000 0.500000 0.000000
O O13 0.176468 0.082747 0.969644
O O14 0.000000 0.000000 0.000000
O O15 0.426170 0.777621 0.298007
O O16 0.500000 0.000000 0.000000
#
# Coordination Sequence:
#
# PCOD9012540 Si02
#       7
#     2   2   2   2   2   2   2
#     4  12  26  47  78 103 143 195 241 300 359 427
#     4  12  24  47  70 105 151 183 239 297 365 430
#     4  10  21  40  70  99 137 184 230 290 353 423
#     4  12  27  49  69 106 146 191 243 301 360 424
#     4  12  25  47  73 103 142 192 251 291 350 434
#     4  11  24  43  70 106 142 186 235 297 362 426
#     4  11  21  43  70 104 140 180 243 294 352 430
#
# _framework density 24.59496
#
# number of rings (size 3 to 8) (size 9 to 14) (size 15 to 20)
#    0.000    0.571    5.714    3.429    2.000    1.143 
#    2.571    0.000    0.000    0.000    0.000    0.000 
#    0.000    0.000    0.000    0.000    0.000    0.000 
#
# Total GULP energy -78301.112320 kJ/mol
# GULP energy per Si atom -5592.936594 kJ/mol
# Density = 2.453898 g / cm^3
# Si number density = 24.594960 Si / 1000 Ang^3
#
#
#
# Elastic Constant Matrix: (Units=GPa)
#
#
# Indices 1 2 3 4 5 6 
#
# 1 78.8917 16.8702 14.7720 8.0650 2.3084 4.4084
# 2 16.8702 126.5505 70.3275 35.2970 6.9152 7.2701
# 3 14.7720 70.3275 161.6919 22.0823 27.5606 3.6920
# 4 8.0650 35.2970 22.0823 54.2065 20.2754 -4.5878
# 5 2.3084 6.9152 27.5606 20.2754 34.8654 -2.8851
# 6 4.4084 7.2701 3.6920 -4.5878 -2.8851 26.3450
#
#
#
# Elastic Compliance Matrix: (Units=1/GPa)
#
#
# Indices 1 2 3 4 5 6 
#
# 1 0.013243 -0.000893 -0.000658 -0.001489 0.000515 -0.002080
# 2 -0.000893 0.013601 -0.005662 -0.009331 0.006960 -0.003673
# 3 -0.000658 -0.005662 0.009712 0.002887 -0.008197 -0.000083
# 4 -0.001489 -0.009331 0.002887 0.030680 -0.017693 0.005825
# 5 0.000515 0.006960 -0.008197 -0.017693 0.044109 0.000892
# 6 -0.002080 -0.003673 -0.000083 0.005825 0.000892 0.040443
#
#
# Mechanical properties :
#
#
# Convention : Reuss Voigt Hill
#
# Bulk Modulus (GPa) = 45.18815 63.45263 54.32039
# Shear Modulus (GPa) = 28.80315 40.76100 34.78208
#
# Velocity S-wave (km/s) = 3.42585 4.07540 3.76466
# Velocity P-wave (km/s) = 5.83621 6.92822 6.40553
#
# Compressibility (1/GPa) = 0.02212969
#
# Stress axis : x y z
#
# Youngs Moduli (GPa) = 75.51016 73.52455 102.96280
#
# Poissons Ratio (x) = 0.06564 0.06779
# Poissons Ratio (y) = 0.06741 0.58300
# Poissons Ratio (z) = 0.04972 0.41631
#
# Static dielectric constant tensor:
#      x y z
#    x 0.769780 0.413750 0.190150 
#    y 0.413750 1.803930 -0.049920 
#    z 0.190150 -0.049920 2.028880 
# 
# From -- ./inp_files/569730.got.cif
#   From: 2010.05.17/outbox.cif.g08.bks.cpg/sg2_285_cif.got.tgz:569730.got - 2010.06.03 11:33:40.
