data_PCOD9012364
_publ_section_title
;
Structure prediction by ZEFSAII (Michael W. Deem and Ramdas Pophale) SiO2 
 PCOD9012364
Probable space group: P -1
;
_chemical_formula_sum "Si O2"
_cell_formula_units_Z 15
_cell_length_a 29.052487
_cell_length_b 8.618843
_cell_length_c 14.315459
_cell_angle_alpha 130.686715
_cell_angle_beta 159.085317
_cell_angle_gamma 38.239357
_cell_volume 735.794226
_symmetry_space_group_name_H-M "P -1"
_symmetry_group_IT_number 2
_symmetry_cell_setting 'triclinic'
loop_
_space_group_symop_operation_xyz
x,y,z
-x,-y,-z
loop_
_atom_site_type_symbol
_atom_site_label
_atom_site_fract_x
_atom_site_fract_y
_atom_site_fract_z
Si Si1 0.689714 0.284201 0.309542
Si Si2 0.632308 0.028585 0.802084
Si Si3 0.961719 0.304478 0.867238
Si Si4 0.268277 0.893689 0.165143
Si Si5 0.808534 0.776016 0.231278
Si Si6 0.373175 0.667094 0.581205
Si Si7 0.000000 0.000000 0.000000
Si Si8 0.541557 0.726498 0.762233
O O1 0.777467 0.414647 0.530565
O O2 0.689255 0.201632 0.382816
O O3 0.791131 0.022676 0.334713
O O4 0.500000 0.500000 0.000000
O O5 0.748151 0.979434 0.915616
O O6 0.516126 0.344398 0.734841
O O7 0.500000 0.000000 0.500000
O O8 0.743248 0.839943 0.025647
O O9 0.981058 0.211349 0.973518
O O10 0.000000 0.500000 0.000000
O O11 0.096222 0.049355 0.956604
O O12 0.398239 0.889690 0.474415
O O13 0.352301 0.586966 0.185931
O O14 0.000000 0.500000 0.500000
O O15 0.671243 0.779323 0.027802
O O16 0.448182 0.768089 0.698399
O O17 0.198979 0.758940 0.244543
#
# Coordination Sequence:
#
# PCOD9012364 Si02
#       8
#     2   2   2   2   2   2   1   2
#     4  11  25  45  69  96 147 187 227 296 368 438
#     4  11  23  39  71  98 134 184 240 288 357 427
#     4  11  25  43  69 103 139 184 242 297 355 429
#     4  10  21  41  64 101 130 173 232 303 342 420
#     4  12  26  46  69 102 143 191 240 297 369 437
#     4  10  22  42  65 100 136 185 226 295 358 429
#     4  10  22  38  70  98 142 168 238 296 346 422
#     4  10  21  40  69  96 136 174 235 294 357 424
#
# _framework density 20.386133000000001
#
# number of rings (size 3 to 8) (size 9 to 14) (size 15 to 20)
#    0.000    1.333    4.000    0.800    5.600    2.667 
#    2.400    2.000    0.000    0.000    0.000    0.000 
#    0.000    0.000    0.000    0.000    0.000    0.000 
#
# Total GULP energy -83508.003356 kJ/mol
# GULP energy per Si atom -5567.200224 kJ/mol
# Density = 2.033973 g / cm^3
# Si number density = 20.386133 Si / 1000 Ang^3
#
#
#
# Elastic Constant Matrix: (Units=GPa)
#
#
# Indices 1 2 3 4 5 6 
#
# 1 124.7559 23.2480 42.4804 8.3601 7.8864 23.7858
# 2 23.2480 51.8839 40.7235 3.6996 -8.6429 14.9700
# 3 42.4804 40.7235 107.6746 -1.0713 13.9105 17.6555
# 4 8.3601 3.6996 -1.0713 35.4886 1.8324 4.3453
# 5 7.8864 -8.6429 13.9105 1.8324 35.5592 5.4569
# 6 23.7858 14.9700 17.6555 4.3453 5.4569 30.7959
#
#
#
# Elastic Compliance Matrix: (Units=1/GPa)
#
#
# Indices 1 2 3 4 5 6 
#
# 1 0.010344 -0.000689 -0.002853 -0.001733 -0.000381 -0.005707
# 2 -0.000689 0.036971 -0.013940 -0.003513 0.016598 -0.011893
# 3 -0.002853 -0.013940 0.016860 0.003058 -0.009598 0.000583
# 4 -0.001733 -0.003513 0.003058 0.029480 -0.002822 -0.002367
# 5 -0.000381 0.016598 -0.009598 -0.002822 0.037447 -0.008509
# 6 -0.005707 -0.011893 0.000583 -0.002367 -0.008509 0.044168
#
#
# Mechanical properties :
#
#
# Convention : Reuss Voigt Hill
#
# Bulk Modulus (GPa) = 34.23370 55.24645 44.74007
# Shear Modulus (GPa) = 22.73035 32.22624 27.47829
#
# Velocity S-wave (km/s) = 3.34277 3.98023 3.67535
# Velocity P-wave (km/s) = 5.63275 6.94851 6.32494
#
# Compressibility (1/GPa) = 0.02921098
#
# Stress axis : x y z
#
# Youngs Moduli (GPa) = 96.67827 27.04817 59.31296
#
# Poissons Ratio (x) = 0.01864 0.16919
# Poissons Ratio (y) = 0.06662 0.82683
# Poissons Ratio (z) = 0.27578 0.37705
#
# Static dielectric constant tensor:
#      x y z
#    x 1.726620 -0.007860 -0.017900 
#    y -0.007860 1.740430 0.025160 
#    z -0.017900 0.025160 1.793020 
# 
# From -- ./inp_files/544799.got.cif
#   From: 2010.05.17/outbox.cif.g08.bks.cpg/sg2_273_cif.got.tgz:544799.got - 2010.06.03 11:33:40.
