data_PCOD9012869
_publ_section_title
;
Structure prediction by ZEFSAII (Michael W. Deem and Ramdas Pophale) SiO2 
 PCOD9012869
Probable space group: P -1
;
_chemical_formula_sum "Si O2"
_cell_formula_units_Z 14
_cell_length_a 11.980439
_cell_length_b 7.373771
_cell_length_c 20.112770
_cell_angle_alpha 137.863194
_cell_angle_beta 32.473733
_cell_angle_gamma 126.560458
_cell_volume 637.814110
_symmetry_space_group_name_H-M "P -1"
_symmetry_group_IT_number 2
_symmetry_cell_setting 'triclinic'
loop_
_space_group_symop_operation_xyz
x,y,z
-x,-y,-z
loop_
_atom_site_type_symbol
_atom_site_label
_atom_site_fract_x
_atom_site_fract_y
_atom_site_fract_z
Si Si1 0.759757 0.930195 0.514479
Si Si2 0.450058 0.212215 0.292126
Si Si3 0.878446 0.786708 0.648920
Si Si4 0.343728 0.253209 0.624551
Si Si5 0.474606 0.350943 0.846446
Si Si6 0.302580 0.156364 0.105299
Si Si7 0.916817 0.315418 0.934095
O O1 0.618143 0.214606 0.676975
O O2 0.989147 0.995120 0.394843
O O3 0.734816 0.781960 0.557005
O O4 0.670282 0.768735 0.454271
O O5 0.344339 0.213139 0.274178
O O6 0.575318 0.467177 0.314388
O O7 0.570345 0.918045 0.163814
O O8 0.857916 0.813170 0.744695
O O9 0.000000 0.500000 0.500000
O O10 0.116583 0.237805 0.766497
O O11 0.500000 0.000000 0.500000
O O12 0.613970 0.552064 0.872546
O O13 0.266808 0.512256 0.967363
O O14 0.190575 0.951714 0.058571
O O15 0.500000 0.000000 0.000000
O O16 0.000000 0.500000 0.000000
#
# Coordination Sequence:
#
# PCOD9012869 Si02
#       7
#     2   2   2   2   2   2   2
#     4  10  21  41  61  96 132 156 216 261 320 373
#     4  10  25  39  66  92 136 165 208 266 328 366
#     4  12  20  39  68  95 122 167 218 260 315 381
#     4  12  24  40  68  98 126 174 213 258 320 384
#     4   9  22  44  63  91 133 166 205 272 315 369
#     4  10  22  40  67  91 127 165 215 266 308 381
#     4  11  24  42  66  95 126 170 217 259 317 379
#
# _framework density 21.94997
#
# number of rings (size 3 to 8) (size 9 to 14) (size 15 to 20)
#    0.857    0.571    2.857    2.571    4.000    0.571 
#    0.000    2.857    3.143    0.000    0.000    0.000 
#    0.000    0.000    0.000    0.000    0.000    0.000 
#
# Total GULP energy -78116.113975 kJ/mol
# GULP energy per Si atom -5579.722427 kJ/mol
# Density = 2.190001 g / cm^3
# Si number density = 21.949970 Si / 1000 Ang^3
#
#
#
# Elastic Constant Matrix: (Units=GPa)
#
#
# Indices 1 2 3 4 5 6 
#
# 1 79.9850 47.4614 5.8546 13.3436 2.5672 23.8701
# 2 47.4614 181.2605 27.1430 15.9002 -10.9851 35.7399
# 3 5.8546 27.1430 89.2154 2.5974 -10.3464 3.3694
# 4 13.3436 15.9002 2.5974 32.2253 -1.6066 5.9961
# 5 2.5672 -10.9851 -10.3464 -1.6066 25.8892 -0.7025
# 6 23.8701 35.7399 3.3694 5.9961 -0.7025 39.1164
#
#
#
# Elastic Compliance Matrix: (Units=1/GPa)
#
#
# Indices 1 2 3 4 5 6 
#
# 1 0.017256 -0.002862 -0.000262 -0.004536 -0.003509 -0.007260
# 2 -0.002862 0.007779 -0.001636 -0.001466 0.002706 -0.004947
# 3 -0.000262 -0.001636 0.012187 0.000018 0.004222 0.000678
# 4 -0.004536 -0.001466 0.000018 0.033924 0.001911 -0.001060
# 5 -0.003509 0.002706 0.004222 0.001911 0.041922 -0.000235
# 6 -0.007260 -0.004947 0.000678 -0.001060 -0.000235 0.034615
#
#
# Mechanical properties :
#
#
# Convention : Reuss Voigt Hill
#
# Bulk Modulus (GPa) = 36.09853 56.81988 46.45920
# Shear Modulus (GPa) = 30.04132 37.44630 33.74381
#
# Velocity S-wave (km/s) = 3.70351 4.13484 3.92510
# Velocity P-wave (km/s) = 5.89657 6.98127 6.46172
#
# Compressibility (1/GPa) = 0.02770196
#
# Stress axis : x y z
#
# Youngs Moduli (GPa) = 57.95122 128.54612 82.05350
#
# Poissons Ratio (x) = 0.36794 0.02152
# Poissons Ratio (y) = 0.16587 0.13421
# Poissons Ratio (z) = 0.01520 0.21026
#
# Static dielectric constant tensor:
#      x y z
#    x 1.776520 -0.007760 0.013710 
#    y -0.007760 1.855930 -0.001950 
#    z 0.013710 -0.001950 1.831490 
# 
# From -- ./inp_files/593795.got.cif
#   From: 2010.05.17/outbox.cif.g08.bks.cpg/sg2_297_cif.got.tgz:593795.got - 2010.06.03 11:33:40.
