data_PCOD9012103
_publ_section_title
;
Structure prediction by ZEFSAII (Michael W. Deem and Ramdas Pophale) SiO2 
 PCOD9012103
Probable space group: P -1
;
_chemical_formula_sum "Si O2"
_cell_formula_units_Z 14
_cell_length_a 4.982131
_cell_length_b 5.581819
_cell_length_c 20.040546
_cell_angle_alpha 78.781840
_cell_angle_beta 105.176179
_cell_angle_gamma 96.419937
_cell_volume 526.509273
_symmetry_space_group_name_H-M "P -1"
_symmetry_group_IT_number 2
_symmetry_cell_setting 'triclinic'
loop_
_space_group_symop_operation_xyz
x,y,z
-x,-y,-z
loop_
_atom_site_type_symbol
_atom_site_label
_atom_site_fract_x
_atom_site_fract_y
_atom_site_fract_z
Si Si1 0.168807 0.291558 0.717947
Si Si2 0.748096 0.184909 0.309800
Si Si3 0.057673 0.923306 0.157949
Si Si4 0.173160 0.613090 0.443551
Si Si5 0.863248 0.637871 0.044936
Si Si6 0.508229 0.811823 0.906759
Si Si7 0.353316 0.158203 0.406536
O O1 0.323060 0.548646 0.734731
O O2 0.946343 0.210042 0.764370
O O3 0.030983 0.348481 0.634799
O O4 0.333601 0.052832 0.726159
O O5 0.083958 0.188947 0.339252
O O6 0.617229 0.148372 0.376467
O O7 0.082795 0.739183 0.107985
O O8 0.745413 0.014411 0.125769
O O9 0.279000 0.143867 0.142981
O O10 0.364158 0.401899 0.439407
O O11 0.000000 0.500000 0.500000
O O12 0.292859 0.891036 0.449961
O O13 0.644303 0.455821 0.079663
O O14 0.695770 0.840133 0.984341
O O15 0.000000 0.500000 0.000000
#
# Coordination Sequence:
#
# PCOD9012103 Si02
#       7
#     2   2   2   2   2   2   2
#     4  10  25  45  67 102 142 185 234 298 351 431
#     4  10  22  43  67  94 136 178 227 282 353 410
#     4  12  27  43  69 101 142 185 235 292 366 418
#     4  10  21  43  70 103 139 187 237 293 354 420
#     4  11  25  45  74 103 140 182 239 290 355 425
#     4  11  26  44  70 101 138 182 232 288 355 428
#     4  10  21  40  68  95 131 175 230 286 347 414
#
# _framework density 26.590223000000002
#
# number of rings (size 3 to 8) (size 9 to 14) (size 15 to 20)
#    0.000    1.429    1.429    2.143    6.000    4.571 
#    0.000   18.571    0.000    0.000    0.000    0.000 
#    0.000    0.000    0.000    0.000    0.000    0.000 
#
# Total GULP energy -78414.704176 kJ/mol
# GULP energy per Si atom -5601.050298 kJ/mol
# Density = 2.652970 g / cm^3
# Si number density = 26.590223 Si / 1000 Ang^3
#
#
#
# Elastic Constant Matrix: (Units=GPa)
#
#
# Indices 1 2 3 4 5 6 
#
# 1 92.6324 38.7439 40.5013 -2.6526 -21.5308 -0.4189
# 2 38.7439 210.8432 62.2852 -15.2075 -30.6843 -7.5316
# 3 40.5013 62.2852 174.6328 -20.2300 -38.5244 11.2239
# 4 -2.6526 -15.2075 -20.2300 32.0230 13.4046 -15.5314
# 5 -21.5308 -30.6843 -38.5244 13.4046 55.1854 -7.3891
# 6 -0.4189 -7.5316 11.2239 -15.5314 -7.3891 44.6575
#
#
#
# Elastic Compliance Matrix: (Units=1/GPa)
#
#
# Indices 1 2 3 4 5 6 
#
# 1 0.013018 -0.001453 -0.002014 -0.002236 0.003432 0.000173
# 2 -0.001453 0.005872 -0.001298 0.002358 0.001538 0.002377
# 3 -0.002014 -0.001298 0.007681 0.002337 0.003176 -0.000830
# 4 -0.002236 0.002358 0.002337 0.043005 -0.006547 0.013663
# 5 0.003432 0.001538 0.003176 -0.006547 0.024287 0.001235
# 6 0.000173 0.002377 -0.000830 0.013663 0.001235 0.027960
#
#
# Mechanical properties :
#
#
# Convention : Reuss Voigt Hill
#
# Bulk Modulus (GPa) = 58.68106 84.57437 71.62771
# Shear Modulus (GPa) = 36.48735 48.81170 42.64953
#
# Velocity S-wave (km/s) = 3.70835 4.28916 4.00929
# Velocity P-wave (km/s) = 6.36022 7.51031 6.95907
#
# Compressibility (1/GPa) = 0.01704127
#
# Stress axis : x y z
#
# Youngs Moduli (GPa) = 76.81651 170.30013 130.19152
#
# Poissons Ratio (x) = 0.24742 0.26223
# Poissons Ratio (y) = 0.11160 0.16896
# Poissons Ratio (z) = 0.15472 0.22102
#
# Static dielectric constant tensor:
#      x y z
#    x 2.085400 0.009490 0.108990 
#    y 0.009490 2.137120 0.047650 
#    z 0.108990 0.047650 2.085100 
# 
# From -- ./inp_files/121552.got.cif
#   From: 2010.05.17/outbox.cif.g08.bks.cpg/sg2_61_cif.got.tgz:121552.got - 2010.06.03 11:33:40.
