data_PCOD9012893
_publ_section_title
;
Structure prediction by ZEFSAII (Michael W. Deem and Ramdas Pophale) SiO2 
 PCOD9012893
Probable space group: P -1
;
_chemical_formula_sum "Si O2"
_cell_formula_units_Z 16
_cell_length_a 9.049873
_cell_length_b 16.608814
_cell_length_c 8.657318
_cell_angle_alpha 67.636139
_cell_angle_beta 133.744079
_cell_angle_gamma 134.551469
_cell_volume 655.947532
_symmetry_space_group_name_H-M "P -1"
_symmetry_group_IT_number 2
_symmetry_cell_setting 'triclinic'
loop_
_space_group_symop_operation_xyz
x,y,z
-x,-y,-z
loop_
_atom_site_type_symbol
_atom_site_label
_atom_site_fract_x
_atom_site_fract_y
_atom_site_fract_z
Si Si1 0.086490 0.825075 0.669666
Si Si2 0.791197 0.585534 0.496657
Si Si3 0.359189 0.523171 0.001324
Si Si4 0.812029 0.408917 0.795021
Si Si5 0.148628 0.970791 0.343421
Si Si6 0.662558 0.304770 0.320871
Si Si7 0.640169 0.937183 0.889306
Si Si8 0.634907 0.807395 0.500862
O O1 0.410993 0.909126 0.858465
O O2 0.940902 0.690604 0.650477
O O3 0.921637 0.840578 0.654556
O O4 0.059444 0.862018 0.453399
O O5 0.533058 0.560095 0.255375
O O6 0.721852 0.472041 0.597296
O O7 0.019573 0.628929 0.500321
O O8 0.500000 0.500000 0.000000
O O9 0.374481 0.623578 0.869089
O O10 0.042069 0.416466 0.869973
O O11 0.553837 0.273639 0.721477
O O12 0.000000 0.500000 0.000000
O O13 0.266930 0.979608 0.253104
O O14 0.331084 0.082010 0.509211
O O15 0.900374 0.966805 0.132583
O O16 0.511636 0.183028 0.221031
O O17 0.522075 0.277115 0.403990
#
# Coordination Sequence:
#
# PCOD9012893 Si02
#       8
#     2   2   2   2   2   2   2   2
#     4  11  22  38  62  89 119 157 199 242 296 357
#     4  10  22  41  64  88 117 159 207 247 291 357
#     4  11  21  36  63  89 117 159 204 248 297 354
#     4  11  25  43  60  87 125 161 200 248 300 351
#     4  10  21  41  62  87 121 155 197 248 298 351
#     4   9  20  39  59  89 125 155 196 250 299 349
#     4   9  20  39  64  87 115 158 201 241 294 361
#     4  11  23  39  60  88 127 160 194 251 302 351
#
# _framework density 24.392192999999999
#
# number of rings (size 3 to 8) (size 9 to 14) (size 15 to 20)
#    0.000    1.750    0.000    3.750    0.000    7.500 
#    0.000    7.500    0.000    0.000    0.000    0.000 
#    0.000    0.000    0.000    0.000    0.000    0.000 
#
# Total GULP energy -89445.499895 kJ/mol
# GULP energy per Si atom -5590.343743 kJ/mol
# Density = 2.433668 g / cm^3
# Si number density = 24.392193 Si / 1000 Ang^3
#
#
#
# Elastic Constant Matrix: (Units=GPa)
#
#
# Indices 1 2 3 4 5 6 
#
# 1 125.4241 20.2344 1.6798 14.1368 17.4846 9.7913
# 2 20.2344 62.3122 22.3507 4.3901 3.2520 0.4670
# 3 1.6798 22.3507 77.5265 8.4950 19.0639 0.7584
# 4 14.1368 4.3901 8.4950 24.4400 -8.8323 2.0676
# 5 17.4846 3.2520 19.0639 -8.8323 30.9291 10.2859
# 6 9.7913 0.4670 0.7584 2.0676 10.2859 35.2349
#
#
#
# Elastic Compliance Matrix: (Units=1/GPa)
#
#
# Indices 1 2 3 4 5 6 
#
# 1 0.012032 -0.004369 0.006048 -0.013658 -0.014510 0.001621
# 2 -0.004369 0.019571 -0.007631 0.004161 0.006659 -0.001069
# 3 0.006048 -0.007631 0.023062 -0.019512 -0.024469 0.006212
# 4 -0.013658 0.004161 -0.019512 0.071901 0.044148 -0.012947
# 5 -0.014510 0.006659 -0.024469 0.044148 0.074092 -0.019749
# 6 0.001621 -0.001069 0.006212 -0.012947 -0.019749 0.034336
#
#
# Mechanical properties :
#
#
# Convention : Reuss Voigt Hill
#
# Bulk Modulus (GPa) = 23.38576 39.31027 31.34802
# Shear Modulus (GPa) = 19.14590 32.85399 25.99994
#
# Velocity S-wave (km/s) = 2.80468 3.67400 3.26837
# Velocity P-wave (km/s) = 4.48291 5.84368 5.20793
#
# Compressibility (1/GPa) = 0.04276106
#
# Stress axis : x y z
#
# Youngs Moduli (GPa) = 83.10947 51.09518 43.36148
#
# Poissons Ratio (x) = 0.22324 -0.26223
# Poissons Ratio (y) = 0.36311 0.33088
# Poissons Ratio (z) = -0.50260 0.38989
#
# Static dielectric constant tensor:
#      x y z
#    x 2.049580 0.034180 -0.073150 
#    y 0.034180 1.918260 0.010390 
#    z -0.073150 0.010390 2.017830 
# 
# From -- ./inp_files/217376.got.cif
#   From: 2010.05.17/outbox.cif.g08.bks.cpg/sg2_109_cif.got.tgz:217376.got - 2010.06.03 11:33:40.
