data_PCOD9012549
_publ_section_title
;
Structure prediction by ZEFSAII (Michael W. Deem and Ramdas Pophale) SiO2 
 PCOD9012549
Probable space group: P -1
;
_chemical_formula_sum "Si O2"
_cell_formula_units_Z 15
_cell_length_a 9.556471
_cell_length_b 11.488376
_cell_length_c 7.702654
_cell_angle_alpha 120.826911
_cell_angle_beta 90.750579
_cell_angle_gamma 120.516867
_cell_volume 581.331277
_symmetry_space_group_name_H-M "P -1"
_symmetry_group_IT_number 2
_symmetry_cell_setting 'triclinic'
loop_
_space_group_symop_operation_xyz
x,y,z
-x,-y,-z
loop_
_atom_site_type_symbol
_atom_site_label
_atom_site_fract_x
_atom_site_fract_y
_atom_site_fract_z
Si Si1 0.131176 0.980435 0.377164
Si Si2 0.000000 0.000000 0.000000
Si Si3 0.128948 0.693368 0.268698
Si Si4 0.588076 0.435183 0.217447
Si Si5 0.508259 0.808235 0.242565
Si Si6 0.728674 0.742573 0.665024
Si Si7 0.885776 0.390175 0.249480
Si Si8 0.235698 0.918565 0.783038
O O1 0.329344 0.096108 0.547474
O O2 0.151711 0.057923 0.242929
O O3 0.073470 0.791265 0.226862
O O4 0.000000 0.000000 0.500000
O O5 0.119280 0.221062 0.181309
O O6 0.846367 0.982616 0.109986
O O7 0.324080 0.754623 0.271292
O O8 0.144476 0.787148 0.522292
O O9 0.005803 0.495111 0.165304
O O10 0.679188 0.631052 0.409138
O O11 0.443226 0.335856 0.289126
O O12 0.733198 0.409797 0.241156
O O13 0.517991 0.355277 0.966956
O O14 0.572172 0.940075 0.183942
O O15 0.789712 0.193571 0.139476
O O16 0.000000 0.500000 0.500000
#
# Coordination Sequence:
#
# PCOD9012549 Si02
#       8
#     2   1   2   2   2   2   2   2
#     4  11  23  42  73 102 144 189 239 292 369 423
#     4  12  22  46  70 106 142 180 246 292 354 424
#     4  10  23  44  69 100 147 181 236 300 355 420
#     4  11  25  45  67 103 146 182 243 293 357 426
#     4  11  24  45  70 103 146 184 238 300 360 427
#     4  11  25  42  72 101 141 189 233 300 352 429
#     4  10  22  41  70  98 136 187 234 287 352 420
#     4  10  21  40  71 100 136 187 233 288 349 419
#
# _framework density 25.802842999999999
#
# number of rings (size 3 to 8) (size 9 to 14) (size 15 to 20)
#    0.000    1.333    1.333    5.600    5.600    2.667 
#    0.000    4.000    0.000    0.000    0.000    0.000 
#    0.000    0.000    0.000    0.000    0.000    0.000 
#
# Total GULP energy -83656.678762 kJ/mol
# GULP energy per Si atom -5577.111917 kJ/mol
# Density = 2.574411 g / cm^3
# Si number density = 25.802843 Si / 1000 Ang^3
#
#
#
# Elastic Constant Matrix: (Units=GPa)
#
#
# Indices 1 2 3 4 5 6 
#
# 1 125.4626 62.7111 16.1367 -2.3426 -2.9733 22.9273
# 2 62.7111 161.8215 21.7127 7.0745 0.5232 -3.6405
# 3 16.1367 21.7127 106.2235 10.7803 -7.7929 -15.2927
# 4 -2.3426 7.0745 10.7803 49.1312 -0.1960 -0.4167
# 5 -2.9733 0.5232 -7.7929 -0.1960 41.2377 4.5615
# 6 22.9273 -3.6405 -15.2927 -0.4167 4.5615 36.4394
#
#
#
# Elastic Compliance Matrix: (Units=1/GPa)
#
#
# Indices 1 2 3 4 5 6 
#
# 1 0.012485 -0.004819 -0.002338 0.001728 0.001578 -0.009496
# 2 -0.004819 0.008239 -0.000339 -0.001313 -0.000944 0.003816
# 3 -0.002338 -0.000339 0.011023 -0.002427 0.001257 0.005879
# 4 0.001728 -0.001313 -0.002427 0.021141 0.000004 -0.001996
# 5 0.001578 -0.000944 0.001257 0.000004 0.025021 -0.003692
# 6 -0.009496 0.003816 0.005879 -0.001996 -0.003692 0.036705
#
#
# Mechanical properties :
#
#
# Convention : Reuss Voigt Hill
#
# Bulk Modulus (GPa) = 59.68178 66.06983 62.87581
# Shear Modulus (GPa) = 36.98478 44.89148 40.93813
#
# Velocity S-wave (km/s) = 3.79008 4.17560 3.98750
# Velocity P-wave (km/s) = 6.50639 6.99348 6.75433
#
# Compressibility (1/GPa) = 0.01675553
#
# Stress axis : x y z
#
# Youngs Moduli (GPa) = 80.09728 121.37632 90.71658
#
# Poissons Ratio (x) = 0.58489 0.21212
# Poissons Ratio (y) = 0.38597 0.03072
# Poissons Ratio (z) = 0.18729 0.04110
#
# Static dielectric constant tensor:
#      x y z
#    x 2.044650 -0.061840 0.138830 
#    y -0.061840 2.147610 0.004440 
#    z 0.138830 0.004440 2.245650 
# 
# From -- ./inp_files/182467.got.cif
#   From: 2010.05.17/outbox.cif.g08.bks.cpg/sg2_92_cif.got.tgz:182467.got - 2010.06.03 11:33:40.
