data_PCOD9012613
_publ_section_title
;
Structure prediction by ZEFSAII (Michael W. Deem and Ramdas Pophale) SiO2 
 PCOD9012613
Probable space group: P -1
;
_chemical_formula_sum "Si O2"
_cell_formula_units_Z 16
_cell_length_a 9.909997
_cell_length_b 5.275060
_cell_length_c 17.595918
_cell_angle_alpha 55.556938
_cell_angle_beta 71.956832
_cell_angle_gamma 68.414606
_cell_volume 699.157547
_symmetry_space_group_name_H-M "P -1"
_symmetry_group_IT_number 2
_symmetry_cell_setting 'triclinic'
loop_
_space_group_symop_operation_xyz
x,y,z
-x,-y,-z
loop_
_atom_site_type_symbol
_atom_site_label
_atom_site_fract_x
_atom_site_fract_y
_atom_site_fract_z
Si Si1 0.361140 0.795884 0.470185
Si Si2 0.901605 0.460772 0.454056
Si Si3 0.464386 0.328588 0.803240
Si Si4 0.629822 0.809263 0.741841
Si Si5 0.962854 0.608741 0.708101
Si Si6 0.755202 0.149324 0.346514
Si Si7 0.016966 0.945244 0.879785
Si Si8 0.181177 0.229467 0.935572
O O1 0.500000 0.500000 0.500000
O O2 0.225976 0.694111 0.472167
O O3 0.308191 0.871397 0.553455
O O4 0.392681 0.058889 0.363678
O O5 0.000000 0.500000 0.500000
O O6 0.017009 0.300562 0.397833
O O7 0.809166 0.784577 0.375766
O O8 0.576601 0.484758 0.803124
O O9 0.361333 0.619094 0.724362
O O10 0.351586 0.204174 0.897559
O O11 0.538556 0.062460 0.774233
O O12 0.800833 0.759948 0.740040
O O13 0.100054 0.715907 0.701022
O O14 0.981531 0.233823 0.778815
O O15 0.096994 0.603062 0.890855
O O16 0.120377 0.053651 0.906767
O O17 0.871469 0.911157 0.954865
#
# Coordination Sequence:
#
# PCOD9012613 Si02
#       8
#     2   2   2   2   2   2   2   2
#     4  11  23  40  58  91 124 171 224 267 323 378
#     4  11  24  39  65  90 129 171 221 281 320 380
#     4  12  25  43  65  97 130 172 215 274 324 383
#     4  12  28  41  63  94 137 175 213 271 331 391
#     4  11  25  42  63  98 131 171 222 266 338 386
#     4  11  23  39  68  88 125 172 227 277 313 386
#     4  10  21  40  72 102 126 170 209 278 317 395
#     4  10  21  41  70 102 131 158 224 266 327 380
#
# _framework density 22.884684
#
# number of rings (size 3 to 8) (size 9 to 14) (size 15 to 20)
#    0.000    1.000    2.500    3.750    7.000    3.000 
#    0.000    1.250    0.000    0.000    0.000    0.000 
#    0.000    0.000    0.000    0.000    0.000    0.000 
#
# Total GULP energy -89493.438840 kJ/mol
# GULP energy per Si atom -5593.339928 kJ/mol
# Density = 2.283260 g / cm^3
# Si number density = 22.884684 Si / 1000 Ang^3
#
#
#
# Elastic Constant Matrix: (Units=GPa)
#
#
# Indices 1 2 3 4 5 6 
#
# 1 89.1216 41.0312 31.7788 12.6643 -35.9730 -8.5637
# 2 41.0312 90.0051 26.7648 10.7868 -22.3346 -9.8290
# 3 31.7788 26.7648 108.5879 12.5980 -45.1803 -4.5658
# 4 12.6643 10.7868 12.5980 39.2343 -5.0434 -7.7688
# 5 -35.9730 -22.3346 -45.1803 -5.0434 42.5681 3.1760
# 6 -8.5637 -9.8290 -4.5658 -7.7688 3.1760 33.5043
#
#
#
# Elastic Compliance Matrix: (Units=1/GPa)
#
#
# Indices 1 2 3 4 5 6 
#
# 1 0.019966 -0.005236 0.002817 -0.003466 0.016587 0.001575
# 2 -0.005236 0.014678 -0.001092 -0.001300 0.001788 0.002348
# 3 0.002817 -0.001092 0.017277 -0.003613 0.019714 0.000048
# 4 -0.003466 -0.001300 -0.003613 0.028600 -0.004452 0.005294
# 5 0.016587 0.001788 0.019714 -0.004452 0.058780 0.000846
# 6 0.001575 0.002348 0.000048 0.005294 0.000846 0.032092
#
#
# Mechanical properties :
#
#
# Convention : Reuss Voigt Hill
#
# Bulk Modulus (GPa) = 22.27194 54.09601 38.18398
# Shear Modulus (GPa) = 25.85552 35.60398 30.72975
#
# Velocity S-wave (km/s) = 3.36492 3.94864 3.66841
# Velocity P-wave (km/s) = 4.98501 6.66925 5.88766
#
# Compressibility (1/GPa) = 0.04489955
#
# Stress axis : x y z
#
# Youngs Moduli (GPa) = 50.08543 68.12804 57.87945
#
# Poissons Ratio (x) = 0.35674 -0.16306
# Poissons Ratio (y) = 0.26226 0.06320
# Poissons Ratio (z) = -0.14110 0.07439
#
# Static dielectric constant tensor:
#      x y z
#    x 1.779380 -0.013470 0.022430 
#    y -0.013470 1.852820 -0.001230 
#    z 0.022430 -0.001230 1.855970 
# 
# From -- ./inp_files/37904.got.cif
#   From: 2010.05.17/outbox.cif.g08.bks.cpg/sg2_19_cif.got.tgz:37904.got - 2010.06.03 11:33:40.
