data_PCOD9012510
_publ_section_title
;
Structure prediction by ZEFSAII (Michael W. Deem and Ramdas Pophale) SiO2 
 PCOD9012510
Probable space group: P -1
;
_chemical_formula_sum "Si O2"
_cell_formula_units_Z 13
_cell_length_a 15.815343
_cell_length_b 9.424132
_cell_length_c 6.669820
_cell_angle_alpha 125.492944
_cell_angle_beta 125.480825
_cell_angle_gamma 32.094373
_cell_volume 420.933944
_symmetry_space_group_name_H-M "P -1"
_symmetry_group_IT_number 2
_symmetry_cell_setting 'triclinic'
loop_
_space_group_symop_operation_xyz
x,y,z
-x,-y,-z
loop_
_atom_site_type_symbol
_atom_site_label
_atom_site_fract_x
_atom_site_fract_y
_atom_site_fract_z
Si Si1 0.500000 0.500000 0.000000
Si Si2 0.855443 0.159849 0.125629
Si Si3 0.547568 0.204374 0.252978
Si Si4 0.977442 0.511832 0.719072
Si Si5 0.158651 0.943718 0.423509
Si Si6 0.759882 0.587815 0.062228
Si Si7 0.601978 0.039100 0.722081
O O1 0.301582 0.705042 0.866732
O O2 0.549492 0.277200 0.723741
O O3 0.032826 0.947910 0.293962
O O4 0.810877 0.412424 0.184942
O O5 0.864528 0.033196 0.832460
O O6 0.362228 0.388123 0.196552
O O7 0.654701 0.237614 0.452357
O O8 0.547061 0.191847 0.990844
O O9 0.651843 0.900001 0.217172
O O10 0.000000 0.500000 0.500000
O O11 0.070677 0.213257 0.643801
O O12 0.792573 0.761936 0.736617
O O13 0.094959 0.516862 0.951691
O O14 0.500000 0.000000 0.500000
#
# Coordination Sequence:
#
# PCOD9012510 Si02
#       7
#     1   2   2   2   2   2   2
#     4  12  26  44  72 106 138 186 242 284 352 420
#     4  11  22  44  68 104 137 185 231 291 344 424
#     4  10  23  45  66 104 138 184 231 293 347 418
#     4  11  20  39  71 100 128 186 230 277 345 426
#     4  10  23  40  71  97 139 181 235 281 349 417
#     4  10  21  40  70  96 139 175 233 276 351 411
#     4  12  26  47  72 103 145 184 235 293 353 417
#
# _framework density 30.883706
#
# number of rings (size 3 to 8) (size 9 to 14) (size 15 to 20)
#    0.000    1.231    3.077    2.769    2.154    5.538 
#    2.769    2.308    0.000    0.000    0.000    0.000 
#    0.000    0.000    0.000    0.000    0.000    0.000 
#
# Total GULP energy -72571.507696 kJ/mol
# GULP energy per Si atom -5582.423669 kJ/mol
# Density = 3.081341 g / cm^3
# Si number density = 30.883706 Si / 1000 Ang^3
#
#
#
# Elastic Constant Matrix: (Units=GPa)
#
#
# Indices 1 2 3 4 5 6 
#
# 1 154.6972 68.7731 67.0413 -30.6641 32.9499 -50.8228
# 2 68.7731 192.7990 60.9585 -30.9883 47.7155 -77.5432
# 3 67.0413 60.9585 216.2706 -28.8391 89.5766 -38.8779
# 4 -30.6641 -30.9883 -28.8391 64.3487 -7.7828 24.8411
# 5 32.9499 47.7155 89.5766 -7.7828 89.4630 -23.9290
# 6 -50.8228 -77.5432 -38.8779 24.8411 -23.9290 89.3292
#
#
#
# Elastic Compliance Matrix: (Units=1/GPa)
#
#
# Indices 1 2 3 4 5 6 
#
# 1 0.009051 -0.001258 -0.001663 0.001875 -0.000088 0.002789
# 2 -0.001258 0.008847 0.000315 0.001132 -0.002862 0.006020
# 3 -0.001663 0.000315 0.008717 0.002152 -0.007995 0.000381
# 4 0.001875 0.001132 0.002152 0.018759 -0.002600 -0.002927
# 5 -0.000088 -0.002862 -0.007995 -0.002600 0.020574 0.000220
# 6 0.002789 0.006020 0.000381 -0.002927 0.000220 0.019045
#
#
# Mechanical properties :
#
#
# Convention : Reuss Voigt Hill
#
# Bulk Modulus (GPa) = 46.72304 106.36806 76.54555
# Shear Modulus (GPa) = 51.36557 73.09445 62.23001
#
# Velocity S-wave (km/s) = 4.08265 4.87022 4.49372
# Velocity P-wave (km/s) = 6.11438 8.13275 7.19469
#
# Compressibility (1/GPa) = 0.02140272
#
# Stress axis : x y z
#
# Youngs Moduli (GPa) = 110.48755 113.02736 114.71240
#
# Poissons Ratio (x) = 0.14218 0.19080
# Poissons Ratio (y) = 0.13898 -0.03610
# Poissons Ratio (z) = 0.18377 -0.03557
#
# Static dielectric constant tensor:
#      x y z
#    x 1.713240 -0.285170 -0.079880 
#    y -0.285170 2.313900 0.020690 
#    z -0.079880 0.020690 2.583430 
# 
# From -- ./inp_files/172227.got.cif
#   From: 2010.05.17/outbox.cif.g08.bks.cpg/sg2_87_cif.got.tgz:172227.got - 2010.06.03 11:33:40.
