data_PCOD9012237
_publ_section_title
;
Structure prediction by ZEFSAII (Michael W. Deem and Ramdas Pophale) SiO2 
 PCOD9012237
Probable space group: P -1
;
_chemical_formula_sum "Si O2"
_cell_formula_units_Z 13
_cell_length_a 10.509656
_cell_length_b 9.586699
_cell_length_c 8.344325
_cell_angle_alpha 78.748221
_cell_angle_beta 43.590590
_cell_angle_gamma 67.301196
_cell_volume 530.050489
_symmetry_space_group_name_H-M "P -1"
_symmetry_group_IT_number 2
_symmetry_cell_setting 'triclinic'
loop_
_space_group_symop_operation_xyz
x,y,z
-x,-y,-z
loop_
_atom_site_type_symbol
_atom_site_label
_atom_site_fract_x
_atom_site_fract_y
_atom_site_fract_z
Si Si1 0.866042 0.342554 0.640639
Si Si2 0.718182 0.649430 0.855758
Si Si3 0.500000 0.000000 0.000000
Si Si4 0.226914 0.479806 0.813526
Si Si5 0.893659 0.092803 0.916159
Si Si6 0.586300 0.264083 0.374713
Si Si7 0.782401 0.112341 0.539070
O O1 0.711856 0.509787 0.785509
O O2 0.922578 0.241131 0.776283
O O3 0.778758 0.254913 0.614857
O O4 0.061326 0.354226 0.381243
O O5 0.704890 0.605325 0.061997
O O6 0.562401 0.817463 0.942319
O O7 0.294244 0.000304 0.268975
O O8 0.361144 0.376504 0.571960
O O9 0.277624 0.632809 0.745216
O O10 0.000000 0.500000 0.000000
O O11 0.666147 0.162160 0.167347
O O12 0.995764 0.968360 0.715506
O O13 0.000000 0.000000 0.000000
O O14 0.639380 0.155724 0.505066
#
# Coordination Sequence:
#
# PCOD9012237 Si02
#       7
#     2   2   1   2   2   2   2
#     4  11  23  44  71 101 139 199 234 289 370 432
#     4  11  24  43  70 105 145 181 245 299 351 434
#     4  12  24  42  66 108 144 182 240 306 350 420
#     4  11  22  42  72 102 141 190 239 298 356 432
#     4  10  21  40  69 101 142 188 236 300 360 422
#     4  10  22  43  68 103 141 186 237 294 363 426
#     4  11  23  43  72 100 145 190 234 297 365 428
#
# _framework density 24.525964999999999
#
# number of rings (size 3 to 8) (size 9 to 14) (size 15 to 20)
#    0.000    1.231    4.615    1.385    0.000    0.615 
#    0.000    4.615    0.000    5.538    0.000    0.000 
#    0.000    0.000    0.000    0.000    0.000    0.000 
#
# Total GULP energy -72395.704425 kJ/mol
# GULP energy per Si atom -5568.900340 kJ/mol
# Density = 2.447014 g / cm^3
# Si number density = 24.525965 Si / 1000 Ang^3
#
#
#
# Elastic Constant Matrix: (Units=GPa)
#
#
# Indices 1 2 3 4 5 6 
#
# 1 53.5023 25.8569 36.0841 -4.1325 0.2865 2.6682
# 2 25.8569 142.7128 39.2544 41.8019 13.2913 6.5906
# 3 36.0841 39.2544 158.6637 31.7473 1.7218 13.2401
# 4 -4.1325 41.8019 31.7473 62.4471 -3.4729 1.5551
# 5 0.2865 13.2913 1.7218 -3.4729 32.5449 -2.9754
# 6 2.6682 6.5906 13.2401 1.5551 -2.9754 23.1848
#
#
#
# Elastic Compliance Matrix: (Units=1/GPa)
#
#
# Indices 1 2 3 4 5 6 
#
# 1 0.026854 -0.006298 -0.006704 0.009560 0.003929 0.002391
# 2 -0.006298 0.011098 0.000685 -0.008436 -0.005686 -0.002985
# 3 -0.006704 0.000685 0.009161 -0.005543 -0.001709 -0.004502
# 4 0.009560 -0.008436 -0.005543 0.025393 0.006695 0.003619
# 5 0.003929 -0.005686 -0.001709 0.006695 0.034377 0.006103
# 6 0.002391 -0.002985 -0.004502 0.003619 0.006103 0.046817
#
#
# Mechanical properties :
#
#
# Convention : Reuss Voigt Hill
#
# Bulk Modulus (GPa) = 44.48475 61.91883 53.20179
# Shear Modulus (GPa) = 26.90657 40.54761 33.72709
#
# Velocity S-wave (km/s) = 3.31579 4.07043 3.71234
# Velocity P-wave (km/s) = 5.73031 6.88420 6.33359
#
# Compressibility (1/GPa) = 0.02247962
#
# Stress axis : x y z
#
# Youngs Moduli (GPa) = 37.23790 90.10511 109.15711
#
# Poissons Ratio (x) = 0.56749 0.73182
# Poissons Ratio (y) = 0.23453 -0.07482
# Poissons Ratio (z) = 0.24965 -0.06176
#
# Static dielectric constant tensor:
#      x y z
#    x 1.985060 -0.031660 -0.140860 
#    y -0.031660 1.960290 0.048890 
#    z -0.140860 0.048890 1.272290 
# 
# From -- ./inp_files/238110.got.cif
#   From: 2010.05.17/outbox.cif.g08.bks.cpg/sg2_120_cif.got.tgz:238110.got - 2010.06.03 11:33:40.
