data_PCOD9012649
_publ_section_title
;
Structure prediction by ZEFSAII (Michael W. Deem and Ramdas Pophale) SiO2 
 PCOD9012649
Probable space group: P -1
;
_chemical_formula_sum "Si O2"
_cell_formula_units_Z 16
_cell_length_a 15.338899
_cell_length_b 7.615450
_cell_length_c 13.085677
_cell_angle_alpha 130.092113
_cell_angle_beta 41.543523
_cell_angle_gamma 97.323202
_cell_volume 554.713545
_symmetry_space_group_name_H-M "P -1"
_symmetry_group_IT_number 2
_symmetry_cell_setting 'triclinic'
loop_
_space_group_symop_operation_xyz
x,y,z
-x,-y,-z
loop_
_atom_site_type_symbol
_atom_site_label
_atom_site_fract_x
_atom_site_fract_y
_atom_site_fract_z
Si Si1 0.781192 0.248205 0.299279
Si Si2 0.524788 0.006881 0.639760
Si Si3 0.620184 0.334441 0.074850
Si Si4 0.520009 0.214914 0.922496
Si Si5 0.991686 0.100166 0.660633
Si Si6 0.840776 0.399737 0.512298
Si Si7 0.731020 0.061740 0.075399
Si Si8 0.147354 0.332136 0.898605
O O1 0.752890 0.450361 0.498320
O O2 0.725956 0.281900 0.241436
O O3 0.770407 0.010933 0.272222
O O4 0.000000 0.000000 0.000000
O O5 0.451849 0.342377 0.789528
O O6 0.613314 0.957969 0.654184
O O7 0.357722 0.043319 0.824062
O O8 0.323506 0.254610 0.671928
O O9 0.821901 0.155428 0.865363
O O10 0.570728 0.300186 0.217059
O O11 0.622857 0.144802 0.911293
O O12 0.330905 0.311106 0.156639
O O13 0.500000 0.500000 0.000000
O O14 0.948205 0.417826 0.831342
O O15 0.000000 0.000000 0.500000
O O16 0.128234 0.868648 0.546010
O O17 0.045707 0.260214 0.263596
O O18 0.000000 0.500000 0.000000
#
# Coordination Sequence:
#
# PCOD9012649 Si02
#       8
#     2   2   2   2   2   2   2   2
#     4  10  21  43  71 101 147 191 241 299 365 430
#     4  11  25  47  71 104 150 187 246 306 365 432
#     4  10  23  43  72 106 144 191 239 302 366 433
#     4  10  21  40  73 103 145 197 237 300 371 433
#     4  11  23  41  73 109 145 189 242 301 367 431
#     4  10  21  43  68 103 144 192 242 289 365 439
#     4  10  24  45  70 105 145 194 245 301 363 435
#     4  12  26  45  74 108 142 191 250 301 359 450
#
# _framework density 28.843717999999999
#
# number of rings (size 3 to 8) (size 9 to 14) (size 15 to 20)
#    0.000    1.500    1.250    3.750    1.750    4.000 
#    6.750    8.750    0.000    0.000    0.000    0.000 
#    0.000    0.000    0.000    0.000    0.000    0.000 
#
# Total GULP energy -89260.588122 kJ/mol
# GULP energy per Si atom -5578.786758 kJ/mol
# Density = 2.877807 g / cm^3
# Si number density = 28.843718 Si / 1000 Ang^3
#
#
#
# Elastic Constant Matrix: (Units=GPa)
#
#
# Indices 1 2 3 4 5 6 
#
# 1 168.3169 33.9442 23.6065 -2.9398 21.5409 -31.8931
# 2 33.9442 149.3152 -8.5973 -15.0011 -5.8437 -21.2523
# 3 23.6065 -8.5973 89.6185 -19.8996 9.7673 18.9709
# 4 -2.9398 -15.0011 -19.8996 27.1590 9.8204 -5.6536
# 5 21.5409 -5.8437 9.7673 9.8204 57.8066 -11.1294
# 6 -31.8931 -21.2523 18.9709 -5.6536 -11.1294 57.7113
#
#
#
# Elastic Compliance Matrix: (Units=1/GPa)
#
#
# Indices 1 2 3 4 5 6 
#
# 1 0.007670 -0.001438 -0.003087 -0.000773 -0.001512 0.004357
# 2 -0.001438 0.008078 0.001994 0.006078 0.000406 0.002199
# 3 -0.003087 0.001994 0.017109 0.013848 -0.005089 -0.006221
# 4 -0.000773 0.006078 0.013848 0.054161 -0.010536 0.000533
# 5 -0.001512 0.000406 -0.005089 -0.010536 0.021337 0.004070
# 6 0.004357 0.002199 -0.006221 0.000533 0.004070 0.023427
#
#
# Mechanical properties :
#
#
# Convention : Reuss Voigt Hill
#
# Bulk Modulus (GPa) = 35.97873 56.12860 46.05366
# Shear Modulus (GPa) = 34.22076 52.42187 43.32132
#
# Velocity S-wave (km/s) = 3.44818 4.26778 3.87968
# Velocity P-wave (km/s) = 5.32485 6.61718 6.00587
#
# Compressibility (1/GPa) = 0.02779420
#
# Stress axis : x y z
#
# Youngs Moduli (GPa) = 130.38444 123.78701 58.44726
#
# Poissons Ratio (x) = 0.17801 0.18044
# Poissons Ratio (y) = 0.18750 -0.11652
# Poissons Ratio (z) = 0.40253 -0.24678
#
# Static dielectric constant tensor:
#      x y z
#    x 2.191080 -0.377870 0.168490 
#    y -0.377870 0.226510 2.219490 
#    z 0.168490 2.219490 0.163660 
# 
# From -- ./inp_files/446297.got.cif
#   From: 2010.05.17/outbox.cif.g08.bks.cpg/sg2_224_cif.got.tgz:446297.got - 2010.06.03 11:33:40.
