data_PCOD9012325
_publ_section_title
;
Structure prediction by ZEFSAII (Michael W. Deem and Ramdas Pophale) SiO2 
 PCOD9012325
Probable space group: P -1
;
_chemical_formula_sum "Si O2"
_cell_formula_units_Z 12
_cell_length_a 9.591478
_cell_length_b 9.139777
_cell_length_c 7.635947
_cell_angle_alpha 82.597857
_cell_angle_beta 69.559245
_cell_angle_gamma 114.872358
_cell_volume 538.306853
_symmetry_space_group_name_H-M "P -1"
_symmetry_group_IT_number 2
_symmetry_cell_setting 'triclinic'
loop_
_space_group_symop_operation_xyz
x,y,z
-x,-y,-z
loop_
_atom_site_type_symbol
_atom_site_label
_atom_site_fract_x
_atom_site_fract_y
_atom_site_fract_z
Si Si1 0.708903 0.695150 0.508714
Si Si2 0.651987 0.567822 0.180073
Si Si3 0.767256 0.014495 0.292873
Si Si4 0.304624 0.949757 0.061598
Si Si5 0.850305 0.851728 0.767730
Si Si6 0.189153 0.659189 0.913675
O O1 0.754247 0.658842 0.300928
O O2 0.548641 0.519631 0.672877
O O3 0.847358 0.775360 0.589911
O O4 0.658541 0.842869 0.476135
O O5 0.684961 0.414830 0.141614
O O6 0.717986 0.694968 0.969724
O O7 0.764967 0.191445 0.273861
O O8 0.964226 0.067169 0.235943
O O9 0.711070 0.964049 0.124603
O O10 0.218632 0.014326 0.229848
O O11 0.204112 0.752799 0.077428
O O12 0.500000 0.000000 0.000000
O O13 0.000000 0.500000 0.000000
#
# Coordination Sequence:
#
# PCOD9012325 Si02
#       6
#     2   2   2   2   2   2
#     4  11  25  39  67 101 129 175 222 268 334 390
#     4  11  22  44  64  97 138 169 218 279 323 397
#     4  10  23  43  64  95 134 170 221 270 326 393
#     4  10  22  40  68  96 126 177 221 263 332 388
#     4  12  22  44  71  92 132 180 219 266 330 402
#     4  10  21  40  69  93 133 177 215 273 334 381
#
# _framework density 22.292117999999999
#
# number of rings (size 3 to 8) (size 9 to 14) (size 15 to 20)
#    1.000    0.333    3.333    2.500    2.333    0.667 
#    0.000    0.833    0.000    0.000    0.000    0.000 
#    0.000    0.000    0.000    0.000    0.000    0.000 
#
# Total GULP energy -66901.339380 kJ/mol
# GULP energy per Si atom -5575.111615 kJ/mol
# Density = 2.224138 g / cm^3
# Si number density = 22.292118 Si / 1000 Ang^3
#
#
#
# Elastic Constant Matrix: (Units=GPa)
#
#
# Indices 1 2 3 4 5 6 
#
# 1 46.8907 20.5995 -15.8661 17.3869 1.6823 9.8036
# 2 20.5995 126.7878 26.6205 2.3870 4.3677 -6.8988
# 3 -15.8661 26.6205 64.7931 -4.2546 13.1443 6.1712
# 4 17.3869 2.3870 -4.2546 41.7898 6.0380 1.5891
# 5 1.6823 4.3677 13.1443 6.0380 23.5769 4.5533
# 6 9.8036 -6.8988 6.1712 1.5891 4.5533 43.7021
#
#
#
# Elastic Compliance Matrix: (Units=1/GPa)
#
#
# Indices 1 2 3 4 5 6 
#
# 1 0.037043 -0.009136 0.013693 -0.012612 -0.003252 -0.010888
# 2 -0.009136 0.011085 -0.007357 0.002058 0.001278 0.004630
# 3 0.013693 -0.007357 0.024808 -0.000772 -0.012000 -0.006458
# 4 -0.012612 0.002058 -0.000772 0.029921 -0.007280 0.002934
# 5 -0.003252 0.001278 -0.012000 -0.007280 0.051441 -0.002469
# 6 -0.010888 0.004630 -0.006458 0.002934 -0.002469 0.027118
#
#
# Mechanical properties :
#
#
# Convention : Reuss Voigt Hill
#
# Bulk Modulus (GPa) = 14.85099 33.46439 24.15769
# Shear Modulus (GPa) = 23.87065 35.62160 29.74613
#
# Velocity S-wave (km/s) = 3.27588 4.00177 3.65688
# Velocity P-wave (km/s) = 4.58093 6.03296 5.35637
#
# Compressibility (1/GPa) = 0.06733557
#
# Stress axis : x y z
#
# Youngs Moduli (GPa) = 26.99592 90.20849 40.30924
#
# Poissons Ratio (x) = 0.82418 -0.55195
# Poissons Ratio (y) = 0.24664 0.29655
# Poissons Ratio (z) = -0.36965 0.66366
#
# Static dielectric constant tensor:
#      x y z
#    x 1.810080 0.022610 0.020670 
#    y 0.022610 1.879360 0.016770 
#    z 0.020670 0.016770 1.847070 
# 
# From -- ./inp_files/146301.got.cif
#   From: 2010.05.17/outbox.cif.g08.bks.cpg/sg2_74_cif.got.tgz:146301.got - 2010.06.03 11:33:40.
