data_PCOD9012647
_publ_section_title
;
Structure prediction by ZEFSAII (Michael W. Deem and Ramdas Pophale) SiO2 
 PCOD9012647
Probable space group: P -1
;
_chemical_formula_sum "Si O2"
_cell_formula_units_Z 14
_cell_length_a 9.038107
_cell_length_b 13.368826
_cell_length_c 8.466304
_cell_angle_alpha 86.440766
_cell_angle_beta 84.485439
_cell_angle_gamma 36.588318
_cell_volume 606.736935
_symmetry_space_group_name_H-M "P -1"
_symmetry_group_IT_number 2
_symmetry_cell_setting 'triclinic'
loop_
_space_group_symop_operation_xyz
x,y,z
-x,-y,-z
loop_
_atom_site_type_symbol
_atom_site_label
_atom_site_fract_x
_atom_site_fract_y
_atom_site_fract_z
Si Si1 0.016362 0.912009 0.368050
Si Si2 0.611768 0.031749 0.180156
Si Si3 0.732906 0.123620 0.937566
Si Si4 0.243079 0.644695 0.603047
Si Si5 0.483870 0.418870 0.133763
Si Si6 0.034030 0.384092 0.207443
Si Si7 0.053421 0.339474 0.833987
O O1 0.231698 0.841951 0.238319
O O2 0.064365 0.787631 0.477980
O O3 0.778164 0.013754 0.276666
O O4 0.000000 0.000000 0.500000
O O5 0.724134 0.859096 0.201286
O O6 0.323811 0.204323 0.233920
O O7 0.666618 0.044277 0.993546
O O8 0.529920 0.294233 0.041208
O O9 0.000000 0.000000 0.000000
O O10 0.500000 0.500000 0.500000
O O11 0.305291 0.680500 0.745787
O O12 0.140765 0.596785 0.683167
O O13 0.205017 0.566859 0.213548
O O14 0.500000 0.500000 0.000000
O O15 0.942086 0.547432 0.232037
O O16 0.019756 0.366831 0.024150
#
# Coordination Sequence:
#
# PCOD9012647 Si02
#       7
#     2   2   2   2   2   2   2
#     4  11  26  43  70 111 147 192 244 301 374 440
#     4  11  23  48  76 104 145 197 247 301 367 433
#     4  10  21  40  73 102 137 187 249 298 354 429
#     4  12  26  45  69 107 150 191 240 304 376 440
#     4  12  21  42  74 102 142 190 254 301 352 441
#     4  11  26  45  72 109 149 187 249 309 364 435
#     4  11  24  44  76 111 139 189 252 308 359 428
#
# _framework density 23.074249999999999
#
# number of rings (size 3 to 8) (size 9 to 14) (size 15 to 20)
#    0.000    0.857    2.857    5.571    2.000    0.571 
#    2.571    2.857    0.000    0.000    0.000    0.000 
#    0.000    0.000    0.000    0.000    0.000    0.000 
#
# Total GULP energy -78241.138707 kJ/mol
# GULP energy per Si atom -5588.652765 kJ/mol
# Density = 2.302173 g / cm^3
# Si number density = 23.074250 Si / 1000 Ang^3
#
#
#
# Elastic Constant Matrix: (Units=GPa)
#
#
# Indices 1 2 3 4 5 6 
#
# 1 132.7024 61.2861 52.5945 -6.6542 -16.3126 1.7909
# 2 61.2861 139.6012 36.2609 -7.7218 -12.7305 17.3222
# 3 52.5945 36.2609 110.0976 -12.8705 -8.2430 5.9995
# 4 -6.6542 -7.7218 -12.8705 34.5316 3.1575 2.2769
# 5 -16.3126 -12.7305 -8.2430 3.1575 41.6400 -5.3325
# 6 1.7909 17.3222 5.9995 2.2769 -5.3325 39.1140
#
#
#
# Elastic Compliance Matrix: (Units=1/GPa)
#
#
# Indices 1 2 3 4 5 6 
#
# 1 0.011242 -0.003947 -0.004063 -0.000630 0.002731 0.002265
# 2 -0.003947 0.009758 -0.000912 0.001285 0.000648 -0.003987
# 3 -0.004063 -0.000912 0.011813 0.003508 0.000020 -0.001424
# 4 -0.000630 0.001285 0.003508 0.030812 -0.001897 -0.003131
# 5 0.002731 0.000648 0.000020 -0.001897 0.025843 0.003219
# 6 0.002265 -0.003987 -0.001424 -0.003131 0.003219 0.028068
#
#
# Mechanical properties :
#
#
# Convention : Reuss Voigt Hill
#
# Bulk Modulus (GPa) = 66.80517 75.85379 71.32948
# Shear Modulus (GPa) = 35.61960 38.54109 37.08034
#
# Velocity S-wave (km/s) = 3.93325 4.09137 4.01309
# Velocity P-wave (km/s) = 7.04574 7.43399 7.24247
#
# Compressibility (1/GPa) = 0.01496890
#
# Stress axis : x y z
#
# Youngs Moduli (GPa) = 88.94821 102.48064 84.64895
#
# Poissons Ratio (x) = 0.40449 0.34395
# Poissons Ratio (y) = 0.35108 0.07722
# Poissons Ratio (z) = 0.36142 0.09349
#
# Static dielectric constant tensor:
#      x y z
#    x 1.961360 0.825100 -0.864200 
#    y 0.825100 11.268800 -10.293790 
#    z -0.864200 -10.293790 13.231970 
# 
# From -- ./inp_files/186579.got.cif
#   From: 2010.05.17/outbox.cif.g08.bks.cpg/sg2_94_cif.got.tgz:186579.got - 2010.06.03 11:33:40.
