data_PCOD9012841
_publ_section_title
;
Structure prediction by ZEFSAII (Michael W. Deem and Ramdas Pophale) SiO2 
 PCOD9012841
Probable space group: P -1
;
_chemical_formula_sum "Si O2"
_cell_formula_units_Z 15
_cell_length_a 9.204841
_cell_length_b 5.337606
_cell_length_c 13.942607
_cell_angle_alpha 99.123158
_cell_angle_beta 58.174094
_cell_angle_gamma 104.476715
_cell_volume 563.257420
_symmetry_space_group_name_H-M "P -1"
_symmetry_group_IT_number 2
_symmetry_cell_setting 'triclinic'
loop_
_space_group_symop_operation_xyz
x,y,z
-x,-y,-z
loop_
_atom_site_type_symbol
_atom_site_label
_atom_site_fract_x
_atom_site_fract_y
_atom_site_fract_z
Si Si1 0.388335 0.207883 0.517468
Si Si2 0.000000 0.000000 0.000000
Si Si3 0.892107 0.474992 0.727828
Si Si4 0.656815 0.109163 0.671657
Si Si5 0.586650 0.785960 0.868562
Si Si6 0.695691 0.715492 0.249502
Si Si7 0.113458 0.733130 0.811940
Si Si8 0.764096 0.236531 0.955259
O O1 0.500000 0.500000 0.500000
O O2 0.258181 0.206286 0.650721
O O3 0.500000 0.000000 0.500000
O O4 0.327764 0.104920 0.427544
O O5 0.937463 0.737118 0.930441
O O6 0.104446 0.813158 0.014325
O O7 0.846596 0.285570 0.641261
O O8 0.731790 0.620524 0.786664
O O9 0.863483 0.308768 0.825027
O O10 0.068503 0.670972 0.711511
O O11 0.505138 0.265072 0.699721
O O12 0.586058 0.966752 0.786040
O O13 0.653284 0.952810 0.948281
O O14 0.393122 0.628490 0.947408
O O15 0.754649 0.442766 0.209137
O O16 0.810631 0.958867 0.166647
#
# Coordination Sequence:
#
# PCOD9012841 Si02
#       8
#     2   1   2   2   2   2   2   2
#     4  10  22  43  72 106 138 169 227 293 346 399
#     4  12  24  44  66  96 138 182 232 274 346 396
#     4  11  24  42  64  96 141 185 224 284 345 408
#     4  10  24  41  73 101 130 181 230 288 342 409
#     4  10  21  41  61  92 136 174 234 277 339 403
#     4  11  25  46  72 103 136 180 232 285 347 411
#     4  12  27  46  67  99 145 183 225 285 346 411
#     4  10  22  39  61  94 129 185 231 283 331 406
#
# _framework density 26.630806
#
# number of rings (size 3 to 8) (size 9 to 14) (size 15 to 20)
#    0.000    1.333    1.333    3.600    9.333    2.133 
#    0.000    1.333    0.000    0.000    0.000    0.000 
#    0.000    0.000    0.000    0.000    0.000    0.000 
#
# Total GULP energy -83584.502001 kJ/mol
# GULP energy per Si atom -5572.300133 kJ/mol
# Density = 2.657019 g / cm^3
# Si number density = 26.630806 Si / 1000 Ang^3
#
#
#
# Elastic Constant Matrix: (Units=GPa)
#
#
# Indices 1 2 3 4 5 6 
#
# 1 121.3080 47.4038 26.1687 14.1790 31.6692 -7.4778
# 2 47.4038 105.8230 19.7759 19.9619 4.5114 -10.1433
# 3 26.1687 19.7759 71.5907 26.5322 27.8635 -9.2940
# 4 14.1790 19.9619 26.5322 55.0946 9.0513 3.7020
# 5 31.6692 4.5114 27.8635 9.0513 41.7317 17.6384
# 6 -7.4778 -10.1433 -9.2940 3.7020 17.6384 51.6695
#
#
#
# Elastic Compliance Matrix: (Units=1/GPa)
#
#
# Indices 1 2 3 4 5 6 
#
# 1 0.014147 -0.005446 0.003687 -0.001406 -0.015239 0.006944
# 2 -0.005446 0.012634 -0.002541 -0.002786 0.005213 -0.000345
# 3 0.003687 -0.002541 0.029579 -0.010971 -0.026281 0.015113
# 4 -0.001406 -0.002786 -0.010971 0.024225 0.006221 -0.006583
# 5 -0.015239 0.005213 -0.026281 0.006221 0.062926 -0.027836
# 6 0.006944 -0.000345 0.015113 -0.006583 -0.027836 0.032984
#
#
# Mechanical properties :
#
#
# Convention : Reuss Voigt Hill
#
# Bulk Modulus (GPa) = 20.93763 53.93538 37.43650
# Shear Modulus (GPa) = 24.87387 43.39073 34.13230
#
# Velocity S-wave (km/s) = 3.05950 4.04089 3.58395
# Velocity P-wave (km/s) = 4.51220 6.48604 5.58698
#
# Compressibility (1/GPa) = 0.04776091
#
# Stress axis : x y z
#
# Youngs Moduli (GPa) = 70.68693 79.15072 33.80801
#
# Poissons Ratio (x) = 0.43102 -0.12465
# Poissons Ratio (y) = 0.38493 0.08590
# Poissons Ratio (z) = -0.26062 0.20110
#
# Static dielectric constant tensor:
#      x y z
#    x 2.550210 0.663090 -1.185530 
#    y 0.663090 2.855430 -1.295070 
#    z -1.185530 -1.295070 5.376640 
# 
# From -- ./inp_files/488539.got.cif
#   From: 2010.05.17/outbox.cif.g08.bks.cpg/sg2_245_cif.got.tgz:488539.got - 2010.06.03 11:33:40.
