data_PCOD9012629
_publ_section_title
;
Structure prediction by ZEFSAII (Michael W. Deem and Ramdas Pophale) SiO2 
 PCOD9012629
Probable space group: P -1
;
_chemical_formula_sum "Si O2"
_cell_formula_units_Z 15
_cell_length_a 8.229548
_cell_length_b 11.904416
_cell_length_c 8.765183
_cell_angle_alpha 67.737032
_cell_angle_beta 127.959295
_cell_angle_gamma 98.365714
_cell_volume 622.049248
_symmetry_space_group_name_H-M "P -1"
_symmetry_group_IT_number 2
_symmetry_cell_setting 'triclinic'
loop_
_space_group_symop_operation_xyz
x,y,z
-x,-y,-z
loop_
_atom_site_type_symbol
_atom_site_label
_atom_site_fract_x
_atom_site_fract_y
_atom_site_fract_z
Si Si1 0.996736 0.251681 0.096519
Si Si2 0.329537 0.549786 0.691511
Si Si3 0.500000 0.000000 0.500000
Si Si4 0.034932 0.367967 0.759329
Si Si5 0.638431 0.327589 0.049921
Si Si6 0.310210 0.155857 0.853187
Si Si7 0.203712 0.055687 0.528074
Si Si8 0.777180 0.067572 0.886909
O O1 0.164103 0.141946 0.308636
O O2 0.076043 0.342402 0.974642
O O3 0.876452 0.304850 0.147849
O O4 0.827427 0.190358 0.931173
O O5 0.204370 0.597825 0.445093
O O6 0.528319 0.449660 0.839660
O O7 0.165863 0.474184 0.725350
O O8 0.381536 0.649409 0.792925
O O9 0.627577 0.043726 0.398038
O O10 0.631467 0.078584 0.651639
O O11 0.126393 0.247414 0.778789
O O12 0.512432 0.219037 0.978124
O O13 0.275341 0.137720 0.663228
O O14 0.304225 0.022615 0.989516
O O15 0.000000 0.000000 0.500000
O O16 0.000000 0.000000 0.000000
#
# Coordination Sequence:
#
# PCOD9012629 Si02
#       8
#     2   2   1   2   2   2   2   2
#     4  12  24  41  65 103 135 179 229 286 338 420
#     4   9  21  45  65  96 125 176 226 289 355 402
#     4  12  26  40  66  94 134 196 230 280 336 396
#     4  10  21  40  72  92 131 176 225 285 347 414
#     4  10  23  40  66  97 130 172 232 281 348 419
#     4  11  22  42  66  95 136 185 221 272 350 419
#     4  12  25  43  66  98 141 191 233 283 339 413
#     4  12  23  44  64 101 146 178 233 282 338 419
#
# _framework density 24.113844
#
# number of rings (size 3 to 8) (size 9 to 14) (size 15 to 20)
#    0.000    1.067    4.000    1.600    1.867    3.200 
#    0.000    5.333    0.000    0.000    0.000    0.000 
#    0.000    0.000    0.000    0.000    0.000    0.000 
#
# Total GULP energy -83665.972003 kJ/mol
# GULP energy per Si atom -5577.731467 kJ/mol
# Density = 2.405896 g / cm^3
# Si number density = 24.113844 Si / 1000 Ang^3
#
#
#
# Elastic Constant Matrix: (Units=GPa)
#
#
# Indices 1 2 3 4 5 6 
#
# 1 56.0325 5.3893 -17.2498 1.3187 -17.0529 5.5342
# 2 5.3893 77.0941 9.6641 14.6324 -8.8864 10.5472
# 3 -17.2498 9.6641 103.8750 7.1547 -16.0265 16.8519
# 4 1.3187 14.6324 7.1547 40.0077 0.4727 -0.8185
# 5 -17.0529 -8.8864 -16.0265 0.4727 34.5924 -2.4456
# 6 5.5342 10.5472 16.8519 -0.8185 -2.4456 25.3449
#
#
#
# Elastic Compliance Matrix: (Units=1/GPa)
#
#
# Indices 1 2 3 4 5 6 
#
# 1 0.026755 0.001040 0.008907 -0.003273 0.016873 -0.010674
# 2 0.001040 0.015408 0.000998 -0.006046 0.004516 -0.007062
# 3 0.008907 0.000998 0.014745 -0.003652 0.010733 -0.011247
# 4 -0.003273 -0.006046 -0.003652 0.028149 -0.004812 0.006104
# 5 0.016873 0.004516 0.010733 -0.004812 0.042808 -0.008725
# 6 -0.010674 -0.007062 -0.011247 0.006104 -0.008725 0.051558
#
#
# Mechanical properties :
#
#
# Convention : Reuss Voigt Hill
#
# Bulk Modulus (GPa) = 12.69087 25.84542 19.26815
# Shear Modulus (GPa) = 27.20349 35.93555 31.56952
#
# Velocity S-wave (km/s) = 3.36240 3.86456 3.62219
# Velocity P-wave (km/s) = 4.51095 5.53664 5.04991
#
# Compressibility (1/GPa) = 0.07879680
#
# Stress axis : x y z
#
# Youngs Moduli (GPa) = 37.37604 64.90308 67.81813
#
# Poissons Ratio (x) = -0.06747 -0.60404
# Poissons Ratio (y) = -0.03886 -0.06769
# Poissons Ratio (z) = -0.33290 -0.06478
#
# Static dielectric constant tensor:
#      x y z
#    x 2.101850 -0.119480 0.132710 
#    y -0.119480 2.075540 -0.150590 
#    z 0.132710 -0.150590 2.037440 
# 
# From -- ./inp_files/176969.got.cif
#   From: 2010.05.17/outbox.cif.g08.bks.cpg/sg2_89_cif.got.tgz:176969.got - 2010.06.03 11:33:40.
