data_PCOD9012409
_publ_section_title
;
Structure prediction by ZEFSAII (Michael W. Deem and Ramdas Pophale) SiO2 
 PCOD9012409
Probable space group: P -1
;
_chemical_formula_sum "Si O2"
_cell_formula_units_Z 14
_cell_length_a 10.799526
_cell_length_b 11.151571
_cell_length_c 7.185552
_cell_angle_alpha 70.184930
_cell_angle_beta 40.722022
_cell_angle_gamma 83.292320
_cell_volume 517.106980
_symmetry_space_group_name_H-M "P -1"
_symmetry_group_IT_number 2
_symmetry_cell_setting 'triclinic'
loop_
_space_group_symop_operation_xyz
x,y,z
-x,-y,-z
loop_
_atom_site_type_symbol
_atom_site_label
_atom_site_fract_x
_atom_site_fract_y
_atom_site_fract_z
Si Si1 0.097695 0.898215 0.832668
Si Si2 0.522144 0.565590 0.238585
Si Si3 0.518593 0.036401 0.241318
Si Si4 0.921645 0.442337 0.324038
Si Si5 0.277518 0.181835 0.927098
Si Si6 0.543228 0.700256 0.724058
Si Si7 0.023814 0.309015 0.623943
O O1 0.298375 0.965145 0.470806
O O2 0.941078 0.832300 0.891631
O O3 0.114748 0.803771 0.035866
O O4 0.000000 0.000000 0.000000
O O5 0.500000 0.500000 0.500000
O O6 0.310468 0.583644 0.413844
O O7 0.656477 0.708451 0.050343
O O8 0.568091 0.450522 0.112921
O O9 0.543227 0.192520 0.122308
O O10 0.500000 0.000000 0.500000
O O11 0.670256 0.958519 0.023646
O O12 0.998611 0.565575 0.302044
O O13 0.000000 0.500000 0.000000
O O14 0.976418 0.328774 0.451355
O O15 0.406486 0.239760 0.569574
O O16 0.754552 0.701489 0.574024
#
# Coordination Sequence:
#
# PCOD9012409 Si02
#       7
#     2   2   2   2   2   2   2
#     4  11  18  33  61  87 124 170 200 261 326 366
#     4   9  18  35  56  78 122 161 194 259 329 365
#     4  10  17  29  55  93 118 159 217 253 307 388
#     4  10  21  37  62  89 120 166 211 269 319 385
#     4   9  18  30  52  88 121 158 211 253 309 386
#     4   8  15  31  55  81 115 161 195 251 315 365
#     4   9  19  36  59  90 124 160 217 257 323 386
#
# _framework density 27.073699999999999
#
# number of rings (size 3 to 8) (size 9 to 14) (size 15 to 20)
#    0.000    2.571    4.286    0.857    2.000    0.000 
#    0.000    0.000    9.429   10.286    0.000    0.000 
#    0.000    0.000    0.000    0.000    0.000    0.000 
#
# Total GULP energy -78225.165051 kJ/mol
# GULP energy per Si atom -5587.511789 kJ/mol
# Density = 2.701208 g / cm^3
# Si number density = 27.073700 Si / 1000 Ang^3
#
#
#
# Elastic Constant Matrix: (Units=GPa)
#
#
# Indices 1 2 3 4 5 6 
#
# 1 179.4035 89.5186 84.8895 1.3269 10.3877 -8.3065
# 2 89.5186 161.7378 63.9536 -20.4871 -1.8073 -0.2650
# 3 84.8895 63.9536 71.6078 -2.6326 -12.3431 0.8338
# 4 1.3269 -20.4871 -2.6326 22.7054 -0.6088 -10.9467
# 5 10.3877 -1.8073 -12.3431 -0.6088 63.3383 2.8448
# 6 -8.3065 -0.2650 0.8338 -10.9467 2.8448 39.6942
#
#
#
# Elastic Compliance Matrix: (Units=1/GPa)
#
#
# Indices 1 2 3 4 5 6 
#
# 1 0.015619 -0.002074 -0.017912 -0.003532 -0.006285 0.003107
# 2 -0.002074 0.011910 -0.007949 0.011375 -0.000895 0.003013
# 3 -0.017912 -0.007949 0.044231 -0.003884 0.011591 -0.006632
# 4 -0.003532 0.011375 -0.003884 0.062029 0.000001 0.016525
# 5 -0.006285 -0.000895 0.011591 0.000001 0.019184 -0.002939
# 6 0.003107 0.003013 -0.006632 0.016525 -0.002939 0.030770
#
#
# Mechanical properties :
#
#
# Convention : Reuss Voigt Hill
#
# Bulk Modulus (GPa) = 62.93802 98.83026 80.88414
# Shear Modulus (GPa) = 20.41564 36.77339 28.59451
#
# Velocity S-wave (km/s) = 2.74902 3.68947 3.25341
# Velocity P-wave (km/s) = 5.77699 7.39817 6.63726
#
# Compressibility (1/GPa) = 0.01588865
#
# Stress axis : x y z
#
# Youngs Moduli (GPa) = 64.02603 83.96460 22.60838
#
# Poissons Ratio (x) = 0.17416 0.40497
# Poissons Ratio (y) = 0.13281 0.17971
# Poissons Ratio (z) = 1.14686 0.66743
#
# Static dielectric constant tensor:
#      x y z
#    x 2.132580 -0.069840 -0.022590 
#    y -0.069840 2.179180 -0.028120 
#    z -0.022590 -0.028120 2.224680 
# 
# From -- ./inp_files/448812.got.cif
#   From: 2010.05.17/outbox.cif.g08.bks.cpg/sg2_225_cif.got.tgz:448812.got - 2010.06.03 11:33:40.
