data_PCOD9012169
_publ_section_title
;
Structure prediction by ZEFSAII (Michael W. Deem and Ramdas Pophale) SiO2 
 PCOD9012169
Probable space group: P -1
;
_chemical_formula_sum "Si O2"
_cell_formula_units_Z 16
_cell_length_a 5.823365
_cell_length_b 11.444092
_cell_length_c 12.618214
_cell_angle_alpha 68.905881
_cell_angle_beta 107.566842
_cell_angle_gamma 116.996491
_cell_volume 689.314397
_symmetry_space_group_name_H-M "P -1"
_symmetry_group_IT_number 2
_symmetry_cell_setting 'triclinic'
loop_
_space_group_symop_operation_xyz
x,y,z
-x,-y,-z
loop_
_atom_site_type_symbol
_atom_site_label
_atom_site_fract_x
_atom_site_fract_y
_atom_site_fract_z
Si Si1 0.942081 0.138256 0.365481
Si Si2 0.580027 0.885780 0.495901
Si Si3 0.971468 0.579727 0.301402
Si Si4 0.967247 0.324337 0.506287
Si Si5 0.536629 0.544227 0.869165
Si Si6 0.758584 0.959627 0.064570
Si Si7 0.316849 0.686003 0.120370
Si Si8 0.028443 0.787243 0.865751
O O1 0.231104 0.144280 0.386092
O O2 0.982707 0.218377 0.456110
O O3 0.860204 0.213891 0.235768
O O4 0.756579 0.979488 0.396838
O O5 0.340650 0.747662 0.481774
O O6 0.500000 0.000000 0.500000
O O7 0.048201 0.466315 0.409062
O O8 0.729331 0.498219 0.218607
O O9 0.895461 0.652114 0.367718
O O10 0.191120 0.679055 0.221009
O O11 0.689048 0.461262 0.860112
O O12 0.722951 0.700291 0.848514
O O13 0.500000 0.500000 0.000000
O O14 0.612450 0.798639 0.113412
O O15 0.899424 0.055538 0.150121
O O16 0.500000 0.000000 0.000000
O O17 0.000000 0.000000 0.000000
O O18 0.148611 0.724800 0.994805
#
# Coordination Sequence:
#
# PCOD9012169 Si02
#       8
#     2   2   2   2   2   2   2   2
#     4  10  21  40  68  98 130 178 236 290 366 420
#     4   9  20  42  61  93 128 173 227 292 348 418
#     4  11  25  43  67 101 136 192 231 298 358 438
#     4  10  23  43  67  94 139 179 241 290 357 423
#     4  12  24  41  69 100 139 180 238 289 366 430
#     4  10  24  47  68 103 148 193 240 292 364 440
#     4  11  25  44  68 101 147 183 236 293 369 439
#     4  11  23  43  69 104 137 188 234 301 361 440
#
# _framework density 23.211469999999998
#
# number of rings (size 3 to 8) (size 9 to 14) (size 15 to 20)
#    0.000    1.500    1.250    2.625    5.250    1.000 
#   13.500    3.125    0.000    0.000    0.000    0.000 
#    0.000    0.000    0.000    0.000    0.000    0.000 
#
# Total GULP energy -89188.850330 kJ/mol
# GULP energy per Si atom -5574.303146 kJ/mol
# Density = 2.315864 g / cm^3
# Si number density = 23.211470 Si / 1000 Ang^3
#
#
#
# Elastic Constant Matrix: (Units=GPa)
#
#
# Indices 1 2 3 4 5 6 
#
# 1 63.8953 20.9606 41.9938 3.6839 -8.5292 14.1933
# 2 20.9606 103.9102 42.6009 9.4273 -7.0197 35.9364
# 3 41.9938 42.6009 167.2790 -4.0296 -20.1200 12.0972
# 4 3.6839 9.4273 -4.0296 33.9963 -3.8301 -3.2930
# 5 -8.5292 -7.0197 -20.1200 -3.8301 16.5244 4.0356
# 6 14.1933 35.9364 12.0972 -3.2930 4.0356 45.5940
#
#
#
# Elastic Compliance Matrix: (Units=1/GPa)
#
#
# Indices 1 2 3 4 5 6 
#
# 1 0.020708 0.000469 -0.004083 -0.002716 0.006884 -0.006538
# 2 0.000469 0.015975 -0.002706 -0.005417 0.005631 -0.012909
# 3 -0.004083 -0.002706 0.008670 0.003170 0.007880 0.000635
# 4 -0.002716 -0.005417 0.003170 0.032886 0.006291 0.006093
# 5 0.006884 0.005631 0.007880 0.006291 0.081278 -0.015411
# 6 -0.006538 -0.012909 0.000635 0.006093 -0.015411 0.035778
#
#
# Mechanical properties :
#
#
# Convention : Reuss Voigt Hill
#
# Bulk Modulus (GPa) = 30.56742 60.68837 45.62790
# Shear Modulus (GPa) = 22.84796 34.52489 28.68642
#
# Velocity S-wave (km/s) = 3.14082 3.86087 3.51931
# Velocity P-wave (km/s) = 5.13329 6.78806 6.01783
#
# Compressibility (1/GPa) = 0.03271457
#
# Stress axis : x y z
#
# Youngs Moduli (GPa) = 48.29112 62.59933 115.33703
#
# Poissons Ratio (x) = -0.02938 0.47087
# Poissons Ratio (y) = -0.02267 0.31208
# Poissons Ratio (z) = 0.19715 0.16938
#
# Static dielectric constant tensor:
#      x y z
#    x 2.023290 0.019670 -0.069100 
#    y 0.019670 1.925440 -0.044000 
#    z -0.069100 -0.044000 1.982330 
# 
# From -- ./inp_files/364332.got.cif
#   From: 2010.05.17/outbox.cif.g08.bks.cpg/sg2_183_cif.got.tgz:364332.got - 2010.06.03 11:33:40.
