data_PCOD9012603
_publ_section_title
;
Structure prediction by ZEFSAII (Michael W. Deem and Ramdas Pophale) SiO2 
 PCOD9012603
Probable space group: P -1
;
_chemical_formula_sum "Si O2"
_cell_formula_units_Z 16
_cell_length_a 8.635592
_cell_length_b 20.762000
_cell_length_c 12.240467
_cell_angle_alpha 145.600472
_cell_angle_beta 143.337567
_cell_angle_gamma 48.371628
_cell_volume 740.308282
_symmetry_space_group_name_H-M "P -1"
_symmetry_group_IT_number 2
_symmetry_cell_setting 'triclinic'
loop_
_space_group_symop_operation_xyz
x,y,z
-x,-y,-z
loop_
_atom_site_type_symbol
_atom_site_label
_atom_site_fract_x
_atom_site_fract_y
_atom_site_fract_z
Si Si1 0.932324 0.908022 0.923569
Si Si2 0.931224 0.931464 0.201695
Si Si3 0.271580 0.512424 0.611256
Si Si4 0.606724 0.710541 0.758855
Si Si5 0.005261 0.648950 0.091927
Si Si6 0.875302 0.301740 0.381829
Si Si7 0.238892 0.395695 0.879557
Si Si8 0.320725 0.866219 0.519430
O O1 0.626992 0.880777 0.708017
O O2 0.093790 0.795439 0.826290
O O3 0.999682 0.950306 0.141501
O O4 0.000000 0.000000 0.000000
O O5 0.177054 0.895797 0.365150
O O6 0.798078 0.041782 0.334319
O O7 0.728581 0.826571 0.945201
O O8 0.387812 0.391043 0.468517
O O9 0.229742 0.586601 0.582564
O O10 0.000000 0.500000 0.500000
O O11 0.463543 0.578319 0.892928
O O12 0.325540 0.728046 0.677492
O O13 0.793937 0.672158 0.910880
O O14 0.873364 0.659805 0.151103
O O15 0.228616 0.741302 0.329042
O O16 0.104837 0.519504 0.961134
O O17 0.152204 0.323843 0.626024
#
# Coordination Sequence:
#
# PCOD9012603 Si02
#       8
#     2   2   2   2   2   2   2   2
#     4  12  28  45  67 106 140 177 228 284 345 409
#     4  10  24  46  74  99 133 181 230 284 346 401
#     4  12  26  43  67  99 138 180 224 285 344 406
#     4  11  21  45  70  96 137 178 235 278 341 410
#     4  10  21  40  71  99 133 174 229 282 333 400
#     4  12  26  43  67 100 138 184 222 280 343 409
#     4  11  24  40  66 101 134 179 222 277 339 400
#     4  10  24  46  73 101 132 184 232 284 338 407
#
# _framework density 21.612617
#
# number of rings (size 3 to 8) (size 9 to 14) (size 15 to 20)
#    0.000    1.000    2.500    3.750    7.000    4.000 
#    0.000    0.000    0.000    0.000    0.000    0.000 
#    0.000    0.000    0.000    0.000    0.000    0.000 
#
# Total GULP energy -89597.497782 kJ/mol
# GULP energy per Si atom -5599.843611 kJ/mol
# Density = 2.156343 g / cm^3
# Si number density = 21.612617 Si / 1000 Ang^3
#
#
#
# Elastic Constant Matrix: (Units=GPa)
#
#
# Indices 1 2 3 4 5 6 
#
# 1 98.1976 28.2975 35.2242 -7.4157 -3.7598 6.2618
# 2 28.2975 57.3295 25.3188 -8.4387 -3.6958 15.7131
# 3 35.2242 25.3188 88.2830 -15.4559 -6.2252 10.3394
# 4 -7.4157 -8.4387 -15.4559 30.4446 -6.7305 5.7634
# 5 -3.7598 -3.6958 -6.2252 -6.7305 33.3833 -0.4361
# 6 6.2618 15.7131 10.3394 5.7634 -0.4361 35.1559
#
#
#
# Elastic Compliance Matrix: (Units=1/GPa)
#
#
# Indices 1 2 3 4 5 6 
#
# 1 0.012938 -0.005031 -0.003926 -0.000437 0.000095 0.001172
# 2 -0.005031 0.025250 -0.002483 0.007241 0.003084 -0.010808
# 3 -0.003926 -0.002483 0.015741 0.007952 0.003768 -0.004077
# 4 -0.000437 0.007241 0.007952 0.043550 0.010852 -0.012502
# 5 0.000095 0.003084 0.003768 0.010852 0.033147 -0.003872
# 6 0.001172 -0.010808 -0.004077 -0.012502 -0.003872 0.036267
#
#
# Mechanical properties :
#
#
# Convention : Reuss Voigt Hill
#
# Bulk Modulus (GPa) = 32.20881 46.83235 39.52058
# Shear Modulus (GPa) = 24.98458 30.12807 27.55633
#
# Velocity S-wave (km/s) = 3.40372 3.73769 3.57460
# Velocity P-wave (km/s) = 5.51200 6.35162 5.94665
#
# Compressibility (1/GPa) = 0.03104741
#
# Stress axis : x y z
#
# Youngs Moduli (GPa) = 77.29349 39.60392 63.52769
#
# Poissons Ratio (x) = 0.19927 0.24942
# Poissons Ratio (y) = 0.38890 0.15774
# Poissons Ratio (z) = 0.30347 0.09834
#
# Static dielectric constant tensor:
#      x y z
#    x 1.783100 -0.015070 -0.011810 
#    y -0.015070 1.806180 -0.004280 
#    z -0.011810 -0.004280 1.782910 
# 
# From -- ./inp_files/405745.got.cif
#   From: 2010.05.17/outbox.cif.g08.bks.cpg/sg2_203_cif.got.tgz:405745.got - 2010.06.03 11:33:40.
