data_PCOD9012411
_publ_section_title
;
Structure prediction by ZEFSAII (Michael W. Deem and Ramdas Pophale) SiO2 
 PCOD9012411
Probable space group: P -1
;
_chemical_formula_sum "Si O2"
_cell_formula_units_Z 12
_cell_length_a 12.432281
_cell_length_b 9.191957
_cell_length_c 5.958222
_cell_angle_alpha 91.640763
_cell_angle_beta 114.337625
_cell_angle_gamma 66.028580
_cell_volume 558.936736
_symmetry_space_group_name_H-M "P -1"
_symmetry_group_IT_number 2
_symmetry_cell_setting 'triclinic'
loop_
_space_group_symop_operation_xyz
x,y,z
-x,-y,-z
loop_
_atom_site_type_symbol
_atom_site_label
_atom_site_fract_x
_atom_site_fract_y
_atom_site_fract_z
Si Si1 0.127159 0.330721 0.091805
Si Si2 0.469446 0.585190 0.228087
Si Si3 0.790059 0.136169 0.958034
Si Si4 0.068941 0.080776 0.292688
Si Si5 0.752365 0.879328 0.187119
Si Si6 0.408212 0.160299 0.576072
O O1 0.068079 0.205222 0.105444
O O2 0.262362 0.272503 0.349544
O O3 0.187391 0.290706 0.894015
O O4 0.000000 0.500000 0.000000
O O5 0.500000 0.500000 0.500000
O O6 0.529625 0.716196 0.309462
O O7 0.500000 0.500000 0.000000
O O8 0.312831 0.683036 0.094981
O O9 0.924827 0.097970 0.198778
O O10 0.727019 0.021414 0.994476
O O11 0.832693 0.090283 0.734925
O O12 0.133161 0.120376 0.559497
O O13 0.630095 0.905523 0.234718
O O14 0.500000 0.000000 0.500000
#
# Coordination Sequence:
#
# PCOD9012411 Si02
#       6
#     2   2   2   2   2   2
#     4  10  23  38  65  99 136 174 232 298 363 426
#     4  12  31  48  70 109 149 194 238 304 371 428
#     4  10  22  41  67  97 139 181 236 292 358 437
#     4   9  20  39  65 100 130 177 231 300 353 431
#     4  10  21  40  70 100 128 185 243 293 355 431
#     4  11  26  47  74  98 141 193 249 296 354 446
#
# _framework density 21.469334
#
# number of rings (size 3 to 8) (size 9 to 14) (size 15 to 20)
#    0.000    1.667    0.000    3.500    9.333    5.333 
#    0.000    0.000    0.000    0.000    0.000    0.000 
#    0.000    0.000    0.000    0.000    0.000    0.000 
#
# Total GULP energy -66827.409218 kJ/mol
# GULP energy per Si atom -5568.950768 kJ/mol
# Density = 2.142047 g / cm^3
# Si number density = 21.469334 Si / 1000 Ang^3
#
#
#
# Elastic Constant Matrix: (Units=GPa)
#
#
# Indices 1 2 3 4 5 6 
#
# 1 141.6251 59.3780 51.6515 2.4067 -6.1078 -9.5247
# 2 59.3780 122.4606 55.5639 7.1430 -4.7544 -40.7575
# 3 51.6515 55.5639 115.3131 15.1386 3.2975 -20.7841
# 4 2.4067 7.1430 15.1386 26.2882 5.0379 3.5369
# 5 -6.1078 -4.7544 3.2975 5.0379 32.0631 7.0607
# 6 -9.5247 -40.7575 -20.7841 3.5369 7.0607 50.3077
#
#
#
# Elastic Compliance Matrix: (Units=1/GPa)
#
#
# Indices 1 2 3 4 5 6 
#
# 1 0.009999 -0.004645 -0.003264 0.002338 0.001991 -0.003663
# 2 -0.004645 0.015564 -0.003023 -0.003492 -0.000082 0.010738
# 3 -0.003264 -0.003023 0.013043 -0.006405 -0.002080 0.003064
# 4 0.002338 -0.003492 -0.006405 0.044378 -0.004738 -0.007488
# 5 0.001991 -0.000082 -0.002080 -0.004738 0.033600 -0.004932
# 6 -0.003663 0.010738 0.003064 -0.007488 -0.004932 0.030368
#
#
# Mechanical properties :
#
#
# Convention : Reuss Voigt Hill
#
# Bulk Modulus (GPa) = 59.73095 79.17617 69.45356
# Shear Modulus (GPa) = 28.67010 35.91882 32.29446
#
# Velocity S-wave (km/s) = 3.65827 4.09471 3.88263
# Velocity P-wave (km/s) = 6.76209 7.70158 7.24707
#
# Compressibility (1/GPa) = 0.01674174
#
# Stress axis : x y z
#
# Youngs Moduli (GPa) = 100.01232 64.25063 76.66757
#
# Poissons Ratio (x) = 0.29845 0.25028
# Poissons Ratio (y) = 0.46456 0.23174
# Poissons Ratio (z) = 0.32649 0.19421
#
# Static dielectric constant tensor:
#      x y z
#    x 1.803230 -0.013170 -0.029270 
#    y -0.013170 1.820030 0.003180 
#    z -0.029270 0.003180 1.866460 
# 
# From -- ./inp_files/43808.got.cif
#   From: 2010.05.17/outbox.cif.g08.bks.cpg/sg2_22_cif.got.tgz:43808.got - 2010.06.03 11:33:40.
