data_PCOD9012241
_publ_section_title
;
Structure prediction by ZEFSAII (Michael W. Deem and Ramdas Pophale) SiO2 
 PCOD9012241
Probable space group: P -1
;
_chemical_formula_sum "Si O2"
_cell_formula_units_Z 14
_cell_length_a 11.569912
_cell_length_b 7.759140
_cell_length_c 11.441421
_cell_angle_alpha 86.767434
_cell_angle_beta 126.101842
_cell_angle_gamma 120.915842
_cell_volume 665.503168
_symmetry_space_group_name_H-M "P -1"
_symmetry_group_IT_number 2
_symmetry_cell_setting 'triclinic'
loop_
_space_group_symop_operation_xyz
x,y,z
-x,-y,-z
loop_
_atom_site_type_symbol
_atom_site_label
_atom_site_fract_x
_atom_site_fract_y
_atom_site_fract_z
Si Si1 0.674535 0.668718 0.175600
Si Si2 0.214760 0.996181 0.133392
Si Si3 0.396761 0.681276 0.679421
Si Si4 0.211913 0.628389 0.131719
Si Si5 0.312525 0.462898 0.405095
Si Si6 0.522989 0.922272 0.141153
Si Si7 0.986283 0.015549 0.191085
O O1 0.692315 0.527433 0.284312
O O2 0.641577 0.835649 0.203939
O O3 0.848767 0.811484 0.194109
O O4 0.500000 0.500000 0.000000
O O5 0.271742 0.850460 0.217868
O O6 0.078407 0.969769 0.146560
O O7 0.396111 0.229088 0.213514
O O8 0.126681 0.927200 0.954894
O O9 0.323415 0.613286 0.507473
O O10 0.400948 0.872238 0.735902
O O11 0.261434 0.507491 0.248561
O O12 0.331762 0.716570 0.083355
O O13 0.000000 0.500000 0.000000
O O14 0.500000 0.500000 0.500000
O O15 0.149740 0.218657 0.348546
O O16 0.500000 0.000000 0.000000
#
# Coordination Sequence:
#
# PCOD9012241 Si02
#       7
#     2   2   2   2   2   2   2
#     4  12  23  42  72  98 138 193 230 286 359 416
#     4  10  21  40  69 102 128 177 247 292 331 424
#     4  11  24  45  67 100 140 186 230 295 357 407
#     4  11  24  41  73 101 133 185 239 289 352 411
#     4  12  25  46  71 104 149 182 229 303 363 409
#     4  11  24  41  68 106 138 178 244 288 342 428
#     4  11  23  41  70 102 139 180 243 285 344 435
#
# _framework density 21.036715000000001
#
# number of rings (size 3 to 8) (size 9 to 14) (size 15 to 20)
#    0.000    0.857    5.714    1.714    2.000    2.857 
#    2.571    0.714    0.000    0.000    0.000    0.000 
#    0.000    0.000    0.000    0.000    0.000    0.000 
#
# Total GULP energy -78128.274984 kJ/mol
# GULP energy per Si atom -5580.591070 kJ/mol
# Density = 2.098883 g / cm^3
# Si number density = 21.036715 Si / 1000 Ang^3
#
#
#
# Elastic Constant Matrix: (Units=GPa)
#
#
# Indices 1 2 3 4 5 6 
#
# 1 93.4621 45.8345 16.8654 9.5481 -10.3972 9.0877
# 2 45.8345 135.3196 29.7700 7.4596 1.9115 27.6182
# 3 16.8654 29.7700 73.0805 15.1038 -3.7790 12.0922
# 4 9.5481 7.4596 15.1038 31.1717 -4.1103 5.7432
# 5 -10.3972 1.9115 -3.7790 -4.1103 30.1707 5.4408
# 6 9.0877 27.6182 12.0922 5.7432 5.4408 47.2083
#
#
#
# Elastic Compliance Matrix: (Units=1/GPa)
#
#
# Indices 1 2 3 4 5 6 
#
# 1 0.013745 -0.004425 -0.000648 -0.002192 0.004667 -0.000162
# 2 -0.004425 0.010370 -0.002718 0.000794 -0.001616 -0.004429
# 3 -0.000648 -0.002718 0.016720 -0.006704 0.001476 -0.001923
# 4 -0.002192 0.000794 -0.006704 0.036938 0.003978 -0.003278
# 5 0.004667 -0.001616 0.001476 0.003978 0.036488 -0.005021
# 6 -0.000162 -0.004429 -0.001923 -0.003278 -0.005021 0.025275
#
#
# Mechanical properties :
#
#
# Convention : Reuss Voigt Hill
#
# Bulk Modulus (GPa) = 39.59924 54.08911 46.84418
# Shear Modulus (GPa) = 30.57428 35.66962 33.12195
#
# Velocity S-wave (km/s) = 3.81645 4.12222 3.97228
# Velocity P-wave (km/s) = 6.18750 6.95877 6.58444
#
# Compressibility (1/GPa) = 0.02525301
#
# Stress axis : x y z
#
# Youngs Moduli (GPa) = 72.75115 96.43547 59.80789
#
# Poissons Ratio (x) = 0.42674 0.03878
# Poissons Ratio (y) = 0.32193 0.16254
# Poissons Ratio (z) = 0.04717 0.26208
#
# Static dielectric constant tensor:
#      x y z
#    x 1.791030 -0.005460 -0.008650 
#    y -0.005460 1.824180 0.022120 
#    z -0.008650 0.022120 1.793880 
# 
# From -- ./inp_files/208262.got.cif
#   From: 2010.05.17/outbox.cif.g08.bks.cpg/sg2_105_cif.got.tgz:208262.got - 2010.06.03 11:33:40.
