data_PCOD9012369
_publ_section_title
;
Structure prediction by ZEFSAII (Michael W. Deem and Ramdas Pophale) SiO2 
 PCOD9012369
Probable space group: P -1
;
_chemical_formula_sum "Si O2"
_cell_formula_units_Z 14
_cell_length_a 16.769208
_cell_length_b 9.222840
_cell_length_c 12.496624
_cell_angle_alpha 121.577288
_cell_angle_beta 50.072149
_cell_angle_gamma 154.265516
_cell_volume 634.852762
_symmetry_space_group_name_H-M "P -1"
_symmetry_group_IT_number 2
_symmetry_cell_setting 'triclinic'
loop_
_space_group_symop_operation_xyz
x,y,z
-x,-y,-z
loop_
_atom_site_type_symbol
_atom_site_label
_atom_site_fract_x
_atom_site_fract_y
_atom_site_fract_z
Si Si1 0.509871 0.669408 0.470621
Si Si2 0.153030 0.973873 0.826238
Si Si3 0.839909 0.220457 0.790349
Si Si4 0.559174 0.034123 0.085101
Si Si5 0.057811 0.185311 0.865660
Si Si6 0.767933 0.221130 0.629577
Si Si7 0.930216 0.798943 0.378825
O O1 0.500000 0.500000 0.500000
O O2 0.626834 0.776803 0.305364
O O3 0.303521 0.472749 0.541242
O O4 0.644929 0.995539 0.543959
O O5 0.104013 0.071894 0.837935
O O6 0.979236 0.587500 0.801489
O O7 0.123381 0.979040 0.976570
O O8 0.998979 0.293665 0.698922
O O9 0.731684 0.053352 0.702515
O O10 0.680774 0.030326 0.951744
O O11 0.733699 0.404169 0.133783
O O12 0.344717 0.761318 0.229029
O O13 0.500000 0.000000 0.000000
O O14 0.990206 0.054697 0.753141
O O15 0.000000 0.500000 0.500000
O O16 0.000000 0.000000 0.500000
#
# Coordination Sequence:
#
# PCOD9012369 Si02
#       7
#     2   2   2   2   2   2   2
#     4  12  22  41  68  94 132 184 227 275 343 411
#     4  10  21  40  69  97 130 172 235 280 332 403
#     4  10  23  39  65 101 138 175 224 285 345 401
#     4   9  19  38  65  98 130 173 224 274 339 407
#     4  10  21  42  66  98 133 181 226 277 337 412
#     4  11  20  38  65 101 131 170 231 281 321 402
#     4  12  26  43  66 100 142 183 227 281 352 408
#
# _framework density 22.052357000000001
#
# number of rings (size 3 to 8) (size 9 to 14) (size 15 to 20)
#    0.000    1.429    4.286    0.857    0.000    4.000 
#    0.000    0.714    0.000    0.000    0.000    0.000 
#    0.000    0.000    0.000    0.000    0.000    0.000 
#
# Total GULP energy -77993.904060 kJ/mol
# GULP energy per Si atom -5570.993147 kJ/mol
# Density = 2.200216 g / cm^3
# Si number density = 22.052357 Si / 1000 Ang^3
#
#
#
# Elastic Constant Matrix: (Units=GPa)
#
#
# Indices 1 2 3 4 5 6 
#
# 1 75.3839 39.3620 58.5766 -0.2124 -15.5066 34.5065
# 2 39.3620 57.1621 55.2896 3.2216 -2.9374 23.1791
# 3 58.5766 55.2896 240.8085 -20.9350 -11.5204 19.4267
# 4 -0.2124 3.2216 -20.9350 31.1988 13.6730 -0.1880
# 5 -15.5066 -2.9374 -11.5204 13.6730 49.2654 -0.9659
# 6 34.5065 23.1791 19.4267 -0.1880 -0.9659 24.0571
#
#
#
# Elastic Compliance Matrix: (Units=1/GPa)
#
#
# Indices 1 2 3 4 5 6 
#
# 1 0.059077 0.001249 -0.008680 -0.014394 0.019100 -0.078278
# 2 0.001249 0.036952 -0.006950 -0.010036 0.003134 -0.031734
# 3 -0.008680 -0.006950 0.007250 0.006974 -0.003127 0.013221
# 4 -0.014394 -0.010036 0.006974 0.044561 -0.015387 0.024414
# 5 0.019100 0.003134 -0.003127 -0.015387 0.029510 -0.026825
# 6 -0.078278 -0.031734 0.013221 0.024414 -0.026825 0.172859
#
#
# Mechanical properties :
#
#
# Convention : Reuss Voigt Hill
#
# Bulk Modulus (GPa) = 13.41995 75.53454 44.47724
# Shear Modulus (GPa) = 12.38205 35.57934 23.98070
#
# Velocity S-wave (km/s) = 2.37214 4.02108 3.30122
# Velocity P-wave (km/s) = 3.68801 7.47566 5.89436
#
# Compressibility (1/GPa) = 0.07451594
#
# Stress axis : x y z
#
# Youngs Moduli (GPa) = 16.92693 27.06236 137.93219
#
# Poissons Ratio (x) = -0.03379 1.19725
# Poissons Ratio (y) = -0.02114 0.95867
# Poissons Ratio (z) = 0.14693 0.18809
#
# Static dielectric constant tensor:
#      x y z
#    x 1.803250 -0.033810 -0.028120 
#    y -0.033810 1.845540 0.033300 
#    z -0.028120 0.033300 1.871710 
# 
# From -- ./inp_files/448019.got.cif
#   From: 2010.05.17/outbox.cif.g08.bks.cpg/sg2_225_cif.got.tgz:448019.got - 2010.06.03 11:33:40.
