data_PCOD9012004
_publ_section_title
;
Structure prediction by ZEFSAII (Michael W. Deem and Ramdas Pophale) SiO2 
 PCOD9012004
Probable space group: P -1
;
_chemical_formula_sum "Si O2"
_cell_formula_units_Z 14
_cell_length_a 8.951170
_cell_length_b 13.714785
_cell_length_c 17.637736
_cell_angle_alpha 24.384313
_cell_angle_beta 142.733459
_cell_angle_gamma 134.200814
_cell_volume 537.979197
_symmetry_space_group_name_H-M "P -1"
_symmetry_group_IT_number 2
_symmetry_cell_setting 'triclinic'
loop_
_space_group_symop_operation_xyz
x,y,z
-x,-y,-z
loop_
_atom_site_type_symbol
_atom_site_label
_atom_site_fract_x
_atom_site_fract_y
_atom_site_fract_z
Si Si1 0.003816 0.367716 0.914250
Si Si2 0.399264 0.524530 0.207060
Si Si3 0.816468 0.621163 0.404122
Si Si4 0.253768 0.906689 0.415515
Si Si5 0.769337 0.184124 0.804814
Si Si6 0.679626 0.101034 0.218879
Si Si7 0.778698 0.185719 0.365093
O O1 0.828663 0.249383 0.868244
O O2 0.154196 0.545580 0.801958
O O3 0.957338 0.974915 0.416399
O O4 0.184364 0.165052 0.170559
O O5 0.566398 0.687953 0.208646
O O6 0.564295 0.277285 0.430630
O O7 0.162681 0.494487 0.184888
O O8 0.338381 0.662045 0.006953
O O9 0.762290 0.423332 0.583236
O O10 0.000000 0.500000 0.500000
O O11 0.977008 0.811229 0.370595
O O12 0.333806 0.879138 0.554715
O O13 0.518464 0.065653 0.774463
O O14 0.000000 0.000000 0.000000
O O15 0.633102 0.149233 0.254809
#
# Coordination Sequence:
#
# PCOD9012004 Si02
#       7
#     2   2   2   2   2   2   2
#     4  12  26  46  80 110 146 200 253 310 380 441
#     4  11  24  44  72 110 150 194 248 319 370 438
#     4  10  21  40  68 106 149 180 245 312 364 432
#     4  11  23  48  72 112 153 193 253 314 369 450
#     4  12  24  44  76 114 148 195 255 312 375 446
#     4  11  26  48  76 110 158 197 250 316 375 446
#     4  11  26  50  76 110 156 202 251 306 377 459
#
# _framework density 26.023311
#
# number of rings (size 3 to 8) (size 9 to 14) (size 15 to 20)
#    0.000    0.857    2.857    5.143    2.000    3.429 
#    2.571    0.714    0.000    0.000    0.000    0.000 
#    0.000    0.000    0.000    0.000    0.000    0.000 
#
# Total GULP energy -78623.551662 kJ/mol
# GULP energy per Si atom -5615.967976 kJ/mol
# Density = 2.596408 g / cm^3
# Si number density = 26.023311 Si / 1000 Ang^3
#
#
#
# Elastic Constant Matrix: (Units=GPa)
#
#
# Indices 1 2 3 4 5 6 
#
# 1 165.6440 32.6112 56.5458 11.3642 -3.4585 -21.1018
# 2 32.6112 139.1191 37.2185 26.7296 -2.5684 -20.9291
# 3 56.5458 37.2185 146.7770 17.5246 -5.9035 -7.0701
# 4 11.3642 26.7296 17.5246 39.6588 -8.9815 -7.2196
# 5 -3.4585 -2.5684 -5.9035 -8.9815 39.5608 6.8514
# 6 -21.1018 -20.9291 -7.0701 -7.2196 6.8514 42.1998
#
#
#
# Elastic Compliance Matrix: (Units=1/GPa)
#
#
# Indices 1 2 3 4 5 6 
#
# 1 0.007412 -0.000580 -0.002561 -0.000125 -0.000323 0.003021
# 2 -0.000580 0.009155 -0.001383 -0.005097 -0.001404 0.003375
# 3 -0.002561 -0.001383 0.008375 -0.002075 0.000642 -0.001023
# 4 -0.000125 -0.005097 -0.002075 0.031263 0.006203 0.001404
# 5 -0.000323 -0.001404 0.000642 0.006203 0.027378 -0.004134
# 6 0.003021 0.003375 -0.001023 0.001404 -0.004134 0.027621
#
#
# Mechanical properties :
#
#
# Convention : Reuss Voigt Hill
#
# Bulk Modulus (GPa) = 62.91984 78.25458 70.58721
# Shear Modulus (GPa) = 39.82431 45.96152 42.89292
#
# Velocity S-wave (km/s) = 3.91619 4.20714 4.06427
# Velocity P-wave (km/s) = 6.68427 7.33050 7.01483
#
# Compressibility (1/GPa) = 0.01589324
#
# Stress axis : x y z
#
# Youngs Moduli (GPa) = 134.91415 109.22788 119.40523
#
# Poissons Ratio (x) = 0.06334 0.30581
# Poissons Ratio (y) = 0.07823 0.16520
# Poissons Ratio (z) = 0.34553 0.15112
#
# Static dielectric constant tensor:
#      x y z
#    x 2.042500 0.026730 0.034650 
#    y 0.026730 2.119450 0.001870 
#    z 0.034650 0.001870 1.962890 
# 
# From -- ./inp_files/595584.got.cif
#   From: 2010.05.17/outbox.cif.g08.bks.cpg/sg2_298_cif.got.tgz:595584.got - 2010.06.03 11:33:40.
