data_PCOD9012266
_publ_section_title
;
Structure prediction by ZEFSAII (Michael W. Deem and Ramdas Pophale) SiO2 
 PCOD9012266
Probable space group: P -1
;
_chemical_formula_sum "Si O2"
_cell_formula_units_Z 14
_cell_length_a 18.405360
_cell_length_b 5.617291
_cell_length_c 10.753942
_cell_angle_alpha 60.186854
_cell_angle_beta 139.839359
_cell_angle_gamma 97.360587
_cell_volume 555.582065
_symmetry_space_group_name_H-M "P -1"
_symmetry_group_IT_number 2
_symmetry_cell_setting 'triclinic'
loop_
_space_group_symop_operation_xyz
x,y,z
-x,-y,-z
loop_
_atom_site_type_symbol
_atom_site_label
_atom_site_fract_x
_atom_site_fract_y
_atom_site_fract_z
Si Si1 0.291295 0.563415 0.723726
Si Si2 0.339057 0.520831 0.299664
Si Si3 0.560977 0.101052 0.248193
Si Si4 0.949042 0.244859 0.487331
Si Si5 0.907736 0.355738 0.767941
Si Si6 0.081890 0.639406 0.935823
Si Si7 0.462051 0.734766 0.557737
O O1 0.337669 0.832004 0.713087
O O2 0.200325 0.602224 0.712959
O O3 0.209070 0.586276 0.487335
O O4 0.420994 0.245461 0.971332
O O5 0.329849 0.790007 0.309939
O O6 0.426425 0.537704 0.298911
O O7 0.393342 0.228526 0.541039
O O8 0.215198 0.536996 0.072415
O O9 0.539405 0.312037 0.288260
O O10 0.000000 0.500000 0.500000
O O11 0.000000 0.000000 0.500000
O O12 0.010224 0.004343 0.742761
O O13 0.992117 0.515431 0.789948
O O14 0.878902 0.476647 0.841621
O O15 0.000000 0.000000 0.000000
O O16 0.500000 0.000000 0.500000
#
# Coordination Sequence:
#
# PCOD9012266 Si02
#       7
#     2   2   2   2   2   2   2
#     4  11  24  48  71 103 148 190 256 304 382 451
#     4  10  21  40  69 104 137 185 244 295 381 441
#     4  10  23  44  69 104 143 194 235 316 368 447
#     4  12  29  51  74 110 154 207 253 316 387 459
#     4  11  22  44  71 104 143 189 252 311 375 451
#     4  11  25  42  73 106 142 194 247 317 375 453
#     4   9  20  40  63  98 136 179 233 294 358 438
#
# _framework density 25.198798
#
# number of rings (size 3 to 8) (size 9 to 14) (size 15 to 20)
#    0.000    1.429    1.429    2.571    4.000    4.571 
#    5.143    2.143    0.000    0.000    0.000    0.000 
#    0.000    0.000    0.000    0.000    0.000    0.000 
#
# Total GULP energy -78113.874473 kJ/mol
# GULP energy per Si atom -5579.562462 kJ/mol
# Density = 2.514144 g / cm^3
# Si number density = 25.198798 Si / 1000 Ang^3
#
#
#
# Elastic Constant Matrix: (Units=GPa)
#
#
# Indices 1 2 3 4 5 6 
#
# 1 107.7571 35.9481 26.4881 27.7068 18.7446 18.2181
# 2 35.9481 127.2691 47.5470 8.7394 15.5633 35.4133
# 3 26.4881 47.5470 131.4187 17.5274 19.5637 11.3681
# 4 27.7068 8.7394 17.5274 34.6278 3.3100 -5.5849
# 5 18.7446 15.5633 19.5637 3.3100 42.1549 16.2233
# 6 18.2181 35.4133 11.3681 -5.5849 16.2233 42.4323
#
#
#
# Elastic Compliance Matrix: (Units=1/GPa)
#
#
# Indices 1 2 3 4 5 6 
#
# 1 0.014091 -0.001380 0.000086 -0.011565 -0.002824 -0.005363
# 2 -0.001380 0.012016 -0.003210 -0.001953 0.001430 -0.009379
# 3 0.000086 -0.003210 0.009676 -0.003694 -0.003383 0.000857
# 4 -0.011565 -0.001953 -0.003694 0.042786 -0.001018 0.013605
# 5 -0.002824 0.001430 -0.003383 -0.001018 0.030246 -0.010773
# 6 -0.005363 -0.009379 0.000857 0.013605 -0.010773 0.039377
#
#
# Mechanical properties :
#
#
# Convention : Reuss Voigt Hill
#
# Bulk Modulus (GPa) = 37.35082 65.15682 51.25382
# Shear Modulus (GPa) = 30.09782 40.94044 35.51913
#
# Velocity S-wave (km/s) = 3.45978 4.03513 3.75848
# Velocity P-wave (km/s) = 5.55110 6.90094 6.26249
#
# Compressibility (1/GPa) = 0.02677318
#
# Stress axis : x y z
#
# Youngs Moduli (GPa) = 70.96677 83.22566 103.35295
#
# Poissons Ratio (x) = 0.11489 -0.00889
# Poissons Ratio (y) = 0.09796 0.33178
# Poissons Ratio (z) = -0.00611 0.26717
#
# Static dielectric constant tensor:
#      x y z
#    x 2.269590 -0.082650 0.123470 
#    y -0.082650 2.101480 0.031470 
#    z 0.123470 0.031470 2.120330 
# 
# From -- ./inp_files/468309.got.cif
#   From: 2010.05.17/outbox.cif.g08.bks.cpg/sg2_235_cif.got.tgz:468309.got - 2010.06.03 11:33:40.
