data_PCOD9012452
_publ_section_title
;
Structure prediction by ZEFSAII (Michael W. Deem and Ramdas Pophale) SiO2 
 PCOD9012452
Probable space group: P -1
;
_chemical_formula_sum "Si O2"
_cell_formula_units_Z 8
_cell_length_a 21.169655
_cell_length_b 12.335482
_cell_length_c 10.057143
_cell_angle_alpha 148.851812
_cell_angle_beta 23.154520
_cell_angle_gamma 160.927593
_cell_volume 335.675653
_symmetry_space_group_name_H-M "P -1"
_symmetry_group_IT_number 2
_symmetry_cell_setting 'triclinic'
loop_
_space_group_symop_operation_xyz
x,y,z
-x,-y,-z
loop_
_atom_site_type_symbol
_atom_site_label
_atom_site_fract_x
_atom_site_fract_y
_atom_site_fract_z
Si Si1 0.963163 0.724941 0.742142
Si Si2 0.716019 0.159122 0.143570
Si Si3 0.668557 0.307683 0.101644
Si Si4 0.595180 0.725477 0.733798
O O1 0.939718 0.589248 0.791008
O O2 0.683150 0.450482 0.928888
O O3 0.187276 0.939400 0.425630
O O4 0.000000 0.000000 0.000000
O O5 0.671548 0.242494 0.179967
O O6 0.500000 0.000000 0.500000
O O7 0.000000 0.500000 0.000000
O O8 0.684790 0.882099 0.871907
O O9 0.583432 0.468834 0.445792
O O10 0.500000 0.000000 0.000000
#
# Coordination Sequence:
#
# PCOD9012452 Si02
#       4
#     2   2   2   2
#     4  10  21  40  70 107 134 168 225 300 342 394
#     4  12  29  47  68 101 146 189 232 280 347 418
#     4  11  24  44  78 106 133 186 233 288 354 407
#     4  11  24  46  70 105 143 172 235 296 337 410
#
# _framework density 23.832529999999998
#
# number of rings (size 3 to 8) (size 9 to 14) (size 15 to 20)
#    0.000    1.000    2.500    4.500    0.000    9.000 
#    0.000    0.000    0.000    0.000    0.000    0.000 
#    0.000    0.000    0.000    0.000    0.000    0.000 
#
# Total GULP energy -44561.316242 kJ/mol
# GULP energy per Si atom -5570.164530 kJ/mol
# Density = 2.377829 g / cm^3
# Si number density = 23.832530 Si / 1000 Ang^3
#
#
#
# Elastic Constant Matrix: (Units=GPa)
#
#
# Indices 1 2 3 4 5 6 
#
# 1 138.0744 72.8792 71.6336 -13.7532 19.8031 4.3182
# 2 72.8792 157.5444 52.9730 -11.3316 21.1282 26.7561
# 3 71.6336 52.9730 201.0621 -23.0179 29.8343 17.4940
# 4 -13.7532 -11.3316 -23.0179 52.0482 8.8297 3.5313
# 5 19.8031 21.1282 29.8343 8.8297 38.9236 -9.0562
# 6 4.3182 26.7561 17.4940 3.5313 -9.0562 53.9452
#
#
#
# Elastic Compliance Matrix: (Units=1/GPa)
#
#
# Indices 1 2 3 4 5 6 
#
# 1 0.011131 -0.004382 -0.002763 0.000781 -0.000884 0.001979
# 2 -0.004382 0.010168 0.000563 0.002685 -0.005729 -0.006012
# 3 -0.002763 0.000563 0.007595 0.004129 -0.006564 -0.003893
# 4 0.000781 0.002685 0.004129 0.024297 -0.012006 -0.006339
# 5 -0.000884 -0.005729 -0.006564 -0.012006 0.039920 0.012528
# 6 0.001979 -0.006012 -0.003893 -0.006339 0.012528 0.025142
#
#
# Mechanical properties :
#
#
# Convention : Reuss Voigt Hill
#
# Bulk Modulus (GPa) = 63.57110 99.07249 81.32180
# Shear Modulus (GPa) = 36.58731 48.92976 42.75853
#
# Velocity S-wave (km/s) = 3.92239 4.53599 4.24031
# Velocity P-wave (km/s) = 6.87354 8.31229 7.62692
#
# Compressibility (1/GPa) = 0.01573042
#
# Stress axis : x y z
#
# Youngs Moduli (GPa) = 89.83647 98.35214 131.66458
#
# Poissons Ratio (x) = 0.43094 0.36379
# Poissons Ratio (y) = 0.39362 -0.07410
# Poissons Ratio (z) = 0.24822 -0.05535
#
# Static dielectric constant tensor:
#      x y z
#    x 2.036810 -0.057130 -0.126540 
#    y -0.057130 2.064120 0.019620 
#    z -0.126540 0.019620 2.061980 
# 
# From -- ./inp_files/15087.got.cif
#   From: 2010.05.17/outbox.cif.g08.bks.cpg/sg2_8_cif.got.tgz:15087.got - 2010.06.03 11:33:40.
