data_PCOD9012449
_publ_section_title
;
Structure prediction by ZEFSAII (Michael W. Deem and Ramdas Pophale) SiO2 
 PCOD9012449
Probable space group: P -1
;
_chemical_formula_sum "Si O2"
_cell_formula_units_Z 14
_cell_length_a 16.330955
_cell_length_b 16.008253
_cell_length_c 10.215392
_cell_angle_alpha 147.188164
_cell_angle_beta 145.826833
_cell_angle_gamma 24.767564
_cell_volume 581.521072
_symmetry_space_group_name_H-M "P -1"
_symmetry_group_IT_number 2
_symmetry_cell_setting 'triclinic'
loop_
_space_group_symop_operation_xyz
x,y,z
-x,-y,-z
loop_
_atom_site_type_symbol
_atom_site_label
_atom_site_fract_x
_atom_site_fract_y
_atom_site_fract_z
Si Si1 0.664353 0.765141 0.342343
Si Si2 0.639022 0.578258 0.828613
Si Si3 0.813301 0.550857 0.750698
Si Si4 0.655698 0.424550 0.992120
Si Si5 0.036821 0.240225 0.383455
Si Si6 0.787907 0.159577 0.499661
Si Si7 0.377363 0.876682 0.545101
O O1 0.641991 0.614780 0.184784
O O2 0.876566 0.700952 0.529135
O O3 0.500000 0.000000 0.500000
O O4 0.642536 0.733076 0.118015
O O5 0.727097 0.522398 0.725333
O O6 0.771038 0.350982 0.777370
O O7 0.402408 0.710550 0.679423
O O8 0.598580 0.790165 0.736847
O O9 0.904100 0.407217 0.549503
O O10 0.000000 0.500000 0.000000
O O11 0.887030 0.237238 0.103763
O O12 0.500000 0.500000 0.000000
O O13 0.588837 0.333044 0.690800
O O14 0.239272 0.022873 0.432916
O O15 0.762754 0.026848 0.383501
O O16 0.000000 0.000000 0.500000
#
# Coordination Sequence:
#
# PCOD9012449 Si02
#       7
#     2   2   2   2   2   2   2
#     4  12  27  48  71 107 149 200 244 302 374 441
#     4  10  22  44  68 105 143 181 244 303 355 445
#     4  11  23  45  75 104 148 189 237 310 376 431
#     4  12  25  48  75 102 146 192 250 304 351 442
#     4  12  26  47  73 108 148 193 245 299 380 438
#     4  10  21  40  70 106 140 180 236 304 372 419
#     4  11  24  44  74 110 138 192 249 296 367 443
#
# _framework density 24.074794000000001
#
# number of rings (size 3 to 8) (size 9 to 14) (size 15 to 20)
#    0.000    0.857    4.286    2.571    0.000    2.857 
#    5.143    0.000    0.000    0.000    0.000    0.000 
#    0.000    0.000    0.000    0.000    0.000    0.000 
#
# Total GULP energy -78001.295120 kJ/mol
# GULP energy per Si atom -5571.521080 kJ/mol
# Density = 2.402000 g / cm^3
# Si number density = 24.074794 Si / 1000 Ang^3
#
#
#
# Elastic Constant Matrix: (Units=GPa)
#
#
# Indices 1 2 3 4 5 6 
#
# 1 111.6743 40.3717 14.3379 2.5408 27.1351 -16.8642
# 2 40.3717 111.9085 34.8348 -12.8461 24.5538 -5.6537
# 3 14.3379 34.8348 113.5428 -14.8034 18.1767 -13.2598
# 4 2.5408 -12.8461 -14.8034 50.6146 -11.0112 6.0076
# 5 27.1351 24.5538 18.1767 -11.0112 34.3050 -3.8834
# 6 -16.8642 -5.6537 -13.2598 6.0076 -3.8834 50.9929
#
#
#
# Elastic Compliance Matrix: (Units=1/GPa)
#
#
# Indices 1 2 3 4 5 6 
#
# 1 0.012847 -0.003103 0.000756 -0.003641 -0.009076 0.003839
# 2 -0.003103 0.011917 -0.002458 0.001617 -0.004352 -0.000866
# 3 0.000756 -0.002458 0.010499 0.001331 -0.003718 0.002268
# 4 -0.003641 0.001617 0.001331 0.022813 0.008028 -0.002755
# 5 -0.009076 -0.004352 -0.003718 0.008028 0.043758 -0.002064
# 6 0.003839 -0.000866 0.002268 -0.002755 -0.002064 0.021541
#
#
# Mechanical properties :
#
#
# Convention : Reuss Voigt Hill
#
# Bulk Modulus (GPa) = 38.97910 57.35714 48.16812
# Shear Modulus (GPa) = 35.32659 43.68791 39.50725
#
# Velocity S-wave (km/s) = 3.83478 4.26452 4.05535
# Velocity P-wave (km/s) = 5.98610 6.93718 6.47911
#
# Compressibility (1/GPa) = 0.02565477
#
# Stress axis : x y z
#
# Youngs Moduli (GPa) = 77.83803 83.91323 95.24327
#
# Poissons Ratio (x) = 0.26036 -0.07202
# Poissons Ratio (y) = 0.24151 0.23410
# Poissons Ratio (z) = -0.05886 0.20625
#
# Static dielectric constant tensor:
#      x y z
#    x -2.167640 1.315200 0.509460 
#    y 1.315200 1.693630 -0.111720 
#    z 0.509460 -0.111720 2.001550 
# 
# From -- ./inp_files/466663.got.cif
#   From: 2010.05.17/outbox.cif.g08.bks.cpg/sg2_234_cif.got.tgz:466663.got - 2010.06.03 11:33:40.
