data_PCOD9012060
_publ_section_title
;
Structure prediction by ZEFSAII (Michael W. Deem and Ramdas Pophale) SiO2 
 PCOD9012060
Probable space group: P -1
;
_chemical_formula_sum "Si O2"
_cell_formula_units_Z 16
_cell_length_a 9.528367
_cell_length_b 12.781229
_cell_length_c 12.349047
_cell_angle_alpha 46.959706
_cell_angle_beta 130.431103
_cell_angle_gamma 125.094829
_cell_volume 812.675093
_symmetry_space_group_name_H-M "P -1"
_symmetry_group_IT_number 2
_symmetry_cell_setting 'triclinic'
loop_
_space_group_symop_operation_xyz
x,y,z
-x,-y,-z
loop_
_atom_site_type_symbol
_atom_site_label
_atom_site_fract_x
_atom_site_fract_y
_atom_site_fract_z
Si Si1 0.134252 0.651176 0.419567
Si Si2 0.579358 0.940146 0.191961
Si Si3 0.869314 0.349397 0.994008
Si Si4 0.629648 0.385491 0.644158
Si Si5 0.967578 0.037618 0.242480
Si Si6 0.551009 0.195097 0.122099
Si Si7 0.128166 0.137193 0.903705
Si Si8 0.687203 0.116389 0.470721
O O1 0.275784 0.620020 0.421079
O O2 0.240624 0.757796 0.492353
O O3 0.000000 0.500000 0.500000
O O4 0.993273 0.742499 0.236337
O O5 0.506608 0.769756 0.284772
O O6 0.804886 0.984824 0.286742
O O7 0.500170 0.021161 0.190988
O O8 0.500000 0.000000 0.000000
O O9 0.970868 0.213209 0.113192
O O10 0.697980 0.281069 0.043243
O O11 0.785418 0.400530 0.805817
O O12 0.000000 0.500000 0.000000
O O13 0.500000 0.500000 0.500000
O O14 0.872068 0.938169 0.161629
O O15 0.156827 0.981918 0.397785
O O16 0.645426 0.200650 0.282365
O O17 0.339074 0.218082 0.991970
O O18 0.000000 0.000000 0.000000
O O19 0.500000 0.000000 0.500000
#
# Coordination Sequence:
#
# PCOD9012060 Si02
#       8
#     2   2   2   2   2   2   2   2
#     4  11  28  45  68 100 141 180 232 282 348 416
#     4  11  19  40  70  98 129 168 236 276 332 406
#     4  11  25  41  63  99 139 179 228 281 347 402
#     4  12  26  43  71  98 135 178 227 284 343 412
#     4  10  21  40  68  93 134 179 230 276 335 410
#     4  11  22  40  70 102 132 176 232 284 337 408
#     4  11  20  40  72  93 128 180 232 275 339 412
#     4  11  25  44  68 101 140 178 232 290 349 409
#
# _framework density 19.688067
#
# number of rings (size 3 to 8) (size 9 to 14) (size 15 to 20)
#    0.000    1.000    3.750    3.750    7.000    4.000 
#    0.000    0.625    0.000    0.000    0.000    0.000 
#    0.000    0.000    0.000    0.000    0.000    0.000 
#
# Total GULP energy -89200.473934 kJ/mol
# GULP energy per Si atom -5575.029621 kJ/mol
# Density = 1.964326 g / cm^3
# Si number density = 19.688067 Si / 1000 Ang^3
#
#
#
# Elastic Constant Matrix: (Units=GPa)
#
#
# Indices 1 2 3 4 5 6 
#
# 1 95.1364 35.4733 61.1951 -4.8448 18.0481 -7.6865
# 2 35.4733 123.8198 55.7303 -15.6837 14.1105 2.2279
# 3 61.1951 55.7303 108.6457 -3.4008 13.0011 -8.5100
# 4 -4.8448 -15.6837 -3.4008 43.1935 2.3339 -1.9419
# 5 18.0481 14.1105 13.0011 2.3339 35.0616 -4.0395
# 6 -7.6865 2.2279 -8.5100 -1.9419 -4.0395 35.1419
#
#
#
# Elastic Compliance Matrix: (Units=1/GPa)
#
#
# Indices 1 2 3 4 5 6 
#
# 1 0.017618 -0.000164 -0.009029 0.001560 -0.005630 0.001117
# 2 -0.000164 0.011448 -0.005477 0.003769 -0.002999 -0.002224
# 3 -0.009029 -0.005477 0.017142 -0.001586 0.000894 0.002538
# 4 0.001560 0.003769 -0.001586 0.024780 -0.003300 0.000708
# 5 -0.005630 -0.002999 0.000894 -0.003300 0.032833 0.002767
# 6 0.001117 -0.002224 0.002538 0.000708 0.002767 0.029813
#
#
# Mechanical properties :
#
#
# Convention : Reuss Voigt Hill
#
# Bulk Modulus (GPa) = 59.28955 70.26657 64.77806
# Shear Modulus (GPa) = 29.65652 34.35963 32.00807
#
# Velocity S-wave (km/s) = 3.88534 4.18209 4.03645
# Velocity P-wave (km/s) = 7.09279 7.68682 7.39577
#
# Compressibility (1/GPa) = 0.01686638
#
# Stress axis : x y z
#
# Youngs Moduli (GPa) = 56.75990 87.35424 58.33774
#
# Poissons Ratio (x) = 0.01436 0.52674
# Poissons Ratio (y) = 0.00933 0.31951
# Poissons Ratio (z) = 0.51249 0.47843
#
# Static dielectric constant tensor:
#      x y z
#    x 2.169260 -0.304930 -0.163950 
#    y -0.304930 1.784840 0.066720 
#    z -0.163950 0.066720 1.718910 
# 
# From -- ./inp_files/298561.got.cif
#   From: 2010.05.17/outbox.cif.g08.bks.cpg/sg2_150_cif.got.tgz:298561.got - 2010.06.03 11:33:40.
