data_PCOD9012721
_publ_section_title
;
Structure prediction by ZEFSAII (Michael W. Deem and Ramdas Pophale) SiO2 
 PCOD9012721
Probable space group: P -1
;
_chemical_formula_sum "Si O2"
_cell_formula_units_Z 14
_cell_length_a 20.151623
_cell_length_b 9.152228
_cell_length_c 15.510070
_cell_angle_alpha 62.451178
_cell_angle_beta 163.626487
_cell_angle_gamma 124.520749
_cell_volume 622.453658
_symmetry_space_group_name_H-M "P -1"
_symmetry_group_IT_number 2
_symmetry_cell_setting 'triclinic'
loop_
_space_group_symop_operation_xyz
x,y,z
-x,-y,-z
loop_
_atom_site_type_symbol
_atom_site_label
_atom_site_fract_x
_atom_site_fract_y
_atom_site_fract_z
Si Si1 0.837742 0.057521 0.349990
Si Si2 0.448353 0.864885 0.245984
Si Si3 0.151728 0.584685 0.820732
Si Si4 0.529661 0.466824 0.388824
Si Si5 0.250120 0.849088 0.611478
Si Si6 0.562601 0.116760 0.459162
Si Si7 0.820626 0.709789 0.832387
O O1 0.868305 0.262545 0.306501
O O2 0.897791 0.087285 0.518937
O O3 0.000000 0.000000 0.500000
O O4 0.528260 0.893298 0.993996
O O5 0.630406 0.794943 0.542533
O O6 0.635251 0.006340 0.365206
O O7 0.372855 0.983067 0.184483
O O8 0.183577 0.686059 0.925677
O O9 0.926485 0.368875 0.579349
O O10 0.436747 0.581591 0.178530
O O11 0.543278 0.302738 0.400030
O O12 0.785036 0.581967 0.738233
O O13 0.298396 0.380341 0.198756
O O14 0.500000 0.000000 0.500000
O O15 0.864230 0.166804 0.796230
#
# Coordination Sequence:
#
# PCOD9012721 Si02
#       7
#     2   2   2   2   2   2   2
#     4  10  23  45  70  99 121 155 211 257 315 391
#     4  10  22  41  61  93 129 170 214 260 311 372
#     4  10  22  41  65  92 128 164 205 256 319 376
#     4  10  22  40  62  87 126 170 213 265 312 374
#     4  10  22  43  68  92 130 166 195 259 327 371
#     4  12  23  36  61  91 126 172 221 263 306 360
#     4  10  21  41  59  86 128 171 215 263 317 363
#
# _framework density 22.491634999999999
#
# number of rings (size 3 to 8) (size 9 to 14) (size 15 to 20)
#    0.000    1.714    1.429    2.143    2.000    2.857 
#    2.571    8.571    0.000    0.000    0.000    0.000 
#    0.000    0.000    0.000    0.000    0.000    0.000 
#
# Total GULP energy -78044.746323 kJ/mol
# GULP energy per Si atom -5574.624737 kJ/mol
# Density = 2.244044 g / cm^3
# Si number density = 22.491635 Si / 1000 Ang^3
#
#
#
# Elastic Constant Matrix: (Units=GPa)
#
#
# Indices 1 2 3 4 5 6 
#
# 1 107.5665 50.8443 17.2834 5.6037 -15.8269 -16.8870
# 2 50.8443 103.4235 38.6681 25.5430 -18.8994 -21.1285
# 3 17.2834 38.6681 74.2962 23.3083 -9.3997 -16.4748
# 4 5.6037 25.5430 23.3083 43.1095 -9.0741 -16.8149
# 5 -15.8269 -18.8994 -9.3997 -9.0741 21.5366 12.2353
# 6 -16.8870 -21.1285 -16.4748 -16.8149 12.2353 49.2590
#
#
#
# Elastic Compliance Matrix: (Units=1/GPa)
#
#
# Indices 1 2 3 4 5 6 
#
# 1 0.012936 -0.006005 0.000002 0.003611 0.004660 0.001935
# 2 -0.006005 0.016894 -0.004955 -0.005195 0.005894 0.000293
# 3 0.000002 -0.004955 0.018430 -0.006296 -0.000034 0.001899
# 4 0.003611 -0.005195 -0.006296 0.033007 0.005369 0.006837
# 5 0.004660 0.005894 -0.000034 0.005369 0.062753 -0.009640
# 6 0.001935 0.000293 0.001899 0.006837 -0.009640 0.026453
#
#
# Mechanical properties :
#
#
# Convention : Reuss Voigt Hill
#
# Bulk Modulus (GPa) = 37.96108 55.43088 46.69598
# Shear Modulus (GPa) = 24.85450 34.68039 29.76745
#
# Velocity S-wave (km/s) = 3.32784 3.93099 3.64193
# Velocity P-wave (km/s) = 5.62855 6.73069 6.20414
#
# Compressibility (1/GPa) = 0.02634277
#
# Stress axis : x y z
#
# Youngs Moduli (GPa) = 77.30306 59.19304 54.25986
#
# Poissons Ratio (x) = 0.35548 -0.00010
# Poissons Ratio (y) = 0.46423 0.26886
# Poissons Ratio (z) = -0.00015 0.29330
#
# Static dielectric constant tensor:
#      x y z
#    x 1.898620 -0.034330 -0.041470 
#    y -0.034330 1.897760 0.032790 
#    z -0.041470 0.032790 1.857630 
# 
# From -- ./inp_files/105774.got.cif
#   From: 2010.05.17/outbox.cif.g08.bks.cpg/sg2_53_cif.got.tgz:105774.got - 2010.06.03 11:33:40.
