data_PCOD9012829
_publ_section_title
;
Structure prediction by ZEFSAII (Michael W. Deem and Ramdas Pophale) SiO2 
 PCOD9012829
Probable space group: P -1
;
_chemical_formula_sum "Si O2"
_cell_formula_units_Z 16
_cell_length_a 7.195021
_cell_length_b 5.674506
_cell_length_c 18.500180
_cell_angle_alpha 85.952919
_cell_angle_beta 61.831583
_cell_angle_gamma 100.975937
_cell_volume 642.356512
_symmetry_space_group_name_H-M "P -1"
_symmetry_group_IT_number 2
_symmetry_cell_setting 'triclinic'
loop_
_space_group_symop_operation_xyz
x,y,z
-x,-y,-z
loop_
_atom_site_type_symbol
_atom_site_label
_atom_site_fract_x
_atom_site_fract_y
_atom_site_fract_z
Si Si1 0.496547 0.210105 0.595903
Si Si2 0.728180 0.342818 0.407701
Si Si3 0.561830 0.130166 0.751423
Si Si4 0.943895 0.170950 0.788389
Si Si5 0.518317 0.552015 0.112516
Si Si6 0.236243 0.095695 0.036501
Si Si7 0.977650 0.687824 0.762093
Si Si8 0.802775 0.225627 0.094341
O O1 0.690627 0.317097 0.500597
O O2 0.346801 0.409636 0.607944
O O3 0.567482 0.204744 0.666051
O O4 0.409535 0.921062 0.594412
O O5 0.965491 0.344077 0.332057
O O6 0.796909 0.145059 0.743791
O O7 0.469319 0.302926 0.818105
O O8 0.390911 0.876782 0.809806
O O9 0.052699 0.451528 0.782446
O O10 0.781396 0.069172 0.886401
O O11 0.080009 0.971166 0.756280
O O12 0.277631 0.372884 0.168169
O O13 0.738282 0.463856 0.075438
O O14 0.546876 0.705779 0.029709
O O15 0.034944 0.218877 0.082318
O O16 0.208990 0.933753 0.972783
#
# Coordination Sequence:
#
# PCOD9012829 Si02
#       8
#     2   2   2   2   2   2   2   2
#     4  10  23  43  72  99 135 170 212 273 320 398
#     4  10  23  44  69 104 131 169 218 262 334 390
#     4  10  23  40  63  96 130 172 215 267 334 382
#     4  11  25  43  63  97 133 179 217 272 323 390
#     4  10  22  41  62  91 132 175 218 273 328 385
#     4  10  24  39  62  91 127 178 227 274 322 377
#     4  11  24  41  64  96 133 169 220 265 329 393
#     4  10  21  41  61  91 129 168 230 270 327 375
#
# _framework density 24.908284999999999
#
# number of rings (size 3 to 8) (size 9 to 14) (size 15 to 20)
#    0.000    1.750    1.250    1.125    7.000    5.000 
#    0.000    3.125    0.000    0.000    0.000    0.000 
#    0.000    0.000    0.000    0.000    0.000    0.000 
#
# Total GULP energy -89167.060582 kJ/mol
# GULP energy per Si atom -5572.941286 kJ/mol
# Density = 2.485159 g / cm^3
# Si number density = 24.908285 Si / 1000 Ang^3
#
#
#
# Elastic Constant Matrix: (Units=GPa)
#
#
# Indices 1 2 3 4 5 6 
#
# 1 45.7813 6.3150 -4.0300 -1.3015 8.6803 5.0767
# 2 6.3150 159.0846 21.6509 3.5147 3.1781 -2.9435
# 3 -4.0300 21.6509 114.2742 -9.5074 25.1937 14.9200
# 4 -1.3015 3.5147 -9.5074 40.9134 -9.6024 -6.7629
# 5 8.6803 3.1781 25.1937 -9.6024 44.1665 8.3739
# 6 5.0767 -2.9435 14.9200 -6.7629 8.3739 20.1193
#
#
#
# Elastic Compliance Matrix: (Units=1/GPa)
#
#
# Indices 1 2 3 4 5 6 
#
# 1 0.024013 -0.001371 0.003070 -0.000733 -0.005283 -0.006584
# 2 -0.001371 0.006622 -0.001695 -0.000581 0.000198 0.002294
# 3 0.003070 -0.001695 0.011349 0.000425 -0.005537 -0.006991
# 4 -0.000733 -0.000581 0.000425 0.026756 0.004447 0.006928
# 5 -0.005283 0.000198 -0.005537 0.004447 0.028739 -0.004998
# 6 -0.006584 0.002294 -0.006991 0.006928 -0.004998 0.061294
#
#
# Mechanical properties :
#
#
# Convention : Reuss Voigt Hill
#
# Bulk Modulus (GPa) = 23.81325 40.77910 32.29617
# Shear Modulus (GPa) = 28.94143 40.72012 34.83078
#
# Velocity S-wave (km/s) = 3.41239 4.04766 3.74352
# Velocity P-wave (km/s) = 5.01069 6.18481 5.62845
#
# Compressibility (1/GPa) = 0.04199343
#
# Stress axis : x y z
#
# Youngs Moduli (GPa) = 41.64356 151.00445 88.11212
#
# Poissons Ratio (x) = 0.20705 -0.27051
# Poissons Ratio (y) = 0.05710 0.14931
# Poissons Ratio (z) = -0.12785 0.25589
#
# Static dielectric constant tensor:
#      x y z
#    x 2.010860 0.026230 -0.016190 
#    y 0.026230 2.152710 -0.053910 
#    z -0.016190 -0.053910 1.983790 
# 
# From -- ./inp_files/552563.got.cif
#   From: 2010.05.17/outbox.cif.g08.bks.cpg/sg2_277_cif.got.tgz:552563.got - 2010.06.03 11:33:40.
