data_PCOD9012075
_publ_section_title
;
Structure prediction by ZEFSAII (Michael W. Deem and Ramdas Pophale) SiO2 
 PCOD9012075
Probable space group: P -1
;
_chemical_formula_sum "Si O2"
_cell_formula_units_Z 16
_cell_length_a 12.061531
_cell_length_b 11.378189
_cell_length_c 14.568647
_cell_angle_alpha 37.115856
_cell_angle_beta 122.834034
_cell_angle_gamma 144.353297
_cell_volume 670.549039
_symmetry_space_group_name_H-M "P -1"
_symmetry_group_IT_number 2
_symmetry_cell_setting 'triclinic'
loop_
_space_group_symop_operation_xyz
x,y,z
-x,-y,-z
loop_
_atom_site_type_symbol
_atom_site_label
_atom_site_fract_x
_atom_site_fract_y
_atom_site_fract_z
Si Si1 0.045849 0.741313 0.515108
Si Si2 0.602235 0.824509 0.340747
Si Si3 0.996324 0.882631 0.230442
Si Si4 0.693601 0.355393 0.320581
Si Si5 0.205644 0.002609 0.855510
Si Si6 0.554409 0.712737 0.594441
Si Si7 0.284651 0.784763 0.176816
Si Si8 0.595713 0.817813 0.847300
O O1 0.165312 0.675260 0.589242
O O2 0.915753 0.671539 0.414500
O O3 0.902345 0.536688 0.662612
O O4 0.223762 0.094072 0.390480
O O5 0.500000 0.500000 0.500000
O O6 0.795570 0.025187 0.237620
O O7 0.607048 0.869930 0.422707
O O8 0.461796 0.825467 0.227528
O O9 0.856233 0.708022 0.187589
O O10 0.982034 0.087852 0.130453
O O11 0.199521 0.997016 0.229577
O O12 0.543896 0.242841 0.406682
O O13 0.564436 0.232630 0.248366
O O14 0.399081 0.361015 0.736664
O O15 0.234807 0.838095 0.027380
O O16 0.350038 0.023219 0.131281
O O17 0.500000 0.500000 0.000000
#
# Coordination Sequence:
#
# PCOD9012075 Si02
#       8
#     2   2   2   2   2   2   2   2
#     4  12  23  38  65 104 140 178 226 286 339 413
#     4  10  22  46  73  97 130 184 237 289 343 395
#     4  11  24  42  66  98 142 180 229 276 342 406
#     4  11  22  39  64  98 140 175 227 277 336 410
#     4  10  24  46  68  92 139 185 229 287 339 403
#     4  10  21  40  68  94 131 183 227 277 341 403
#     4  12  25  42  70 104 137 180 232 281 349 408
#     4  12  26  41  69 104 146 187 218 278 354 416
#
# _framework density 23.861045000000001
#
# number of rings (size 3 to 8) (size 9 to 14) (size 15 to 20)
#    0.000    1.000    2.500    5.625    3.500    1.000 
#    0.000    6.250    0.000    0.000    0.000    0.000 
#    0.000    0.000    0.000    0.000    0.000    0.000 
#
# Total GULP energy -89379.040047 kJ/mol
# GULP energy per Si atom -5586.190003 kJ/mol
# Density = 2.380674 g / cm^3
# Si number density = 23.861045 Si / 1000 Ang^3
#
#
#
# Elastic Constant Matrix: (Units=GPa)
#
#
# Indices 1 2 3 4 5 6 
#
# 1 79.4117 -1.4630 -4.8592 4.3882 5.4529 -1.7601
# 2 -1.4630 57.4435 4.4837 6.8916 -7.6186 12.5656
# 3 -4.8592 4.4837 58.9285 4.3454 0.0661 -5.6620
# 4 4.3882 6.8916 4.3454 29.9213 0.7015 -2.6064
# 5 5.4529 -7.6186 0.0661 0.7015 37.3872 6.9561
# 6 -1.7601 12.5656 -5.6620 -2.6064 6.9561 27.6147
#
#
#
# Elastic Compliance Matrix: (Units=1/GPa)
#
#
# Indices 1 2 3 4 5 6 
#
# 1 0.012961 -0.000186 0.001374 -0.001870 -0.002187 0.001567
# 2 -0.000186 0.022075 -0.002502 -0.005983 0.007044 -0.012909
# 3 0.001374 -0.002502 0.017898 -0.001737 -0.001668 0.005152
# 4 -0.001870 -0.005983 -0.001737 0.035944 -0.002798 0.006345
# 5 -0.002187 0.007044 -0.001668 -0.002798 0.030732 -0.011692
# 6 0.001567 -0.012909 0.005152 0.006345 -0.011692 0.046787
#
#
# Mechanical properties :
#
#
# Convention : Reuss Voigt Hill
#
# Bulk Modulus (GPa) = 19.87785 21.34518 20.61152
# Shear Modulus (GPa) = 26.91152 32.15944 29.53548
#
# Velocity S-wave (km/s) = 3.36198 3.67520 3.52207
# Velocity P-wave (km/s) = 4.83935 5.19369 5.01965
#
# Compressibility (1/GPa) = 0.05030725
#
# Stress axis : x y z
#
# Youngs Moduli (GPa) = 77.15165 45.30062 55.87120
#
# Poissons Ratio (x) = 0.00840 -0.07675
# Poissons Ratio (y) = 0.01431 0.13978
# Poissons Ratio (z) = -0.10599 0.11334
#
# Static dielectric constant tensor:
#      x y z
#    x 1.972260 -0.024440 -0.035000 
#    y -0.024440 2.040520 -0.076920 
#    z -0.035000 -0.076920 2.004530 
# 
# From -- ./inp_files/519550.got.cif
#   From: 2010.05.17/outbox.cif.g08.bks.cpg/sg2_260_cif.got.tgz:519550.got - 2010.06.03 11:33:40.
