data_PCOD9012611
_publ_section_title
;
Structure prediction by ZEFSAII (Michael W. Deem and Ramdas Pophale) SiO2 
 PCOD9012611
Probable space group: P -1
;
_chemical_formula_sum "Si O2"
_cell_formula_units_Z 12
_cell_length_a 7.991119
_cell_length_b 7.162558
_cell_length_c 11.289762
_cell_angle_alpha 130.118674
_cell_angle_beta 98.199268
_cell_angle_gamma 76.842412
_cell_volume 481.169491
_symmetry_space_group_name_H-M "P -1"
_symmetry_group_IT_number 2
_symmetry_cell_setting 'triclinic'
loop_
_space_group_symop_operation_xyz
x,y,z
-x,-y,-z
loop_
_atom_site_type_symbol
_atom_site_label
_atom_site_fract_x
_atom_site_fract_y
_atom_site_fract_z
Si Si1 0.626669 0.188104 0.487989
Si Si2 0.290515 0.067065 0.369373
Si Si3 0.852049 0.774406 0.202424
Si Si4 0.028425 0.635532 0.401052
Si Si5 0.879277 0.148275 0.146671
Si Si6 0.678276 0.330622 0.988498
O O1 0.634948 0.139282 0.608893
O O2 0.777762 0.341675 0.538350
O O3 0.428984 0.252611 0.456801
O O4 0.691733 0.922189 0.322043
O O5 0.285796 0.919901 0.187051
O O6 0.111046 0.201091 0.461254
O O7 0.997215 0.729914 0.300377
O O8 0.862457 0.956984 0.170139
O O9 0.816915 0.508059 0.049755
O O10 0.972170 0.370497 0.287894
O O11 0.705133 0.262598 0.103019
O O12 0.000000 0.000000 0.000000
O O13 0.500000 0.500000 0.000000
#
# Coordination Sequence:
#
# PCOD9012611 Si02
#       6
#     2   2   2   2   2   2
#     4  10  21  40  72 101 137 187 237 287 352 424
#     4  10  21  42  73 106 133 189 246 280 358 427
#     4  10  22  45  67 102 139 188 237 288 357 423
#     4  10  24  46  74  98 146 190 235 297 356 427
#     4  11  28  45  68 108 143 187 243 295 360 430
#     4  11  24  46  74 100 146 191 232 300 357 428
#
# _framework density 24.939233999999999
#
# number of rings (size 3 to 8) (size 9 to 14) (size 15 to 20)
#    0.000    1.667    1.667    2.000    9.333    2.667 
#    0.000    2.500    0.000    0.000    0.000    0.000 
#    0.000    0.000    0.000    0.000    0.000    0.000 
#
# Total GULP energy -67170.795851 kJ/mol
# GULP energy per Si atom -5597.566321 kJ/mol
# Density = 2.488247 g / cm^3
# Si number density = 24.939234 Si / 1000 Ang^3
#
#
#
# Elastic Constant Matrix: (Units=GPa)
#
#
# Indices 1 2 3 4 5 6 
#
# 1 135.7231 62.1154 62.3930 -9.1596 41.9772 4.9958
# 2 62.1154 175.4841 69.6589 -23.0166 19.8653 -6.0937
# 3 62.3930 69.6589 157.8567 -1.6204 32.0482 8.8900
# 4 -9.1596 -23.0166 -1.6204 32.9099 2.7951 1.3204
# 5 41.9772 19.8653 32.0482 2.7951 41.0827 -0.1223
# 6 4.9958 -6.0937 8.8900 1.3204 -0.1223 36.0788
#
#
#
# Elastic Compliance Matrix: (Units=1/GPa)
#
#
# Indices 1 2 3 4 5 6 
#
# 1 0.012841 -0.002329 -0.001706 0.002860 -0.010863 -0.001892
# 2 -0.002329 0.008375 -0.002907 0.004952 0.000267 0.002273
# 3 -0.001706 -0.002907 0.009214 -0.001620 -0.003936 -0.002479
# 4 0.002860 0.004952 -0.001620 0.035132 -0.006444 -0.000468
# 5 -0.010863 0.000267 -0.003936 -0.006444 0.038829 0.002887
# 6 -0.001892 0.002273 -0.002479 -0.000468 0.002887 0.029001
#
#
# Mechanical properties :
#
#
# Convention : Reuss Voigt Hill
#
# Bulk Modulus (GPa) = 60.43652 95.26649 77.85151
# Shear Modulus (GPa) = 32.72475 40.34073 36.53274
#
# Velocity S-wave (km/s) = 3.62633 4.02625 3.83151
# Velocity P-wave (km/s) = 6.46683 7.73929 7.13150
#
# Compressibility (1/GPa) = 0.01654629
#
# Stress axis : x y z
#
# Youngs Moduli (GPa) = 77.87793 119.40604 108.53136
#
# Poissons Ratio (x) = 0.27806 0.18518
# Poissons Ratio (y) = 0.18135 0.31546
# Poissons Ratio (z) = 0.13288 0.34706
#
# Static dielectric constant tensor:
#      x y z
#    x 2.016230 -0.032370 0.056080 
#    y -0.032370 2.017180 -0.011310 
#    z 0.056080 -0.011310 1.964190 
# 
# From -- ./inp_files/29158.got.cif
#   From: 2010.05.17/outbox.cif.g08.bks.cpg/sg2_15_cif.got.tgz:29158.got - 2010.06.03 11:33:40.
