data_PCOD9012909
_publ_section_title
;
Structure prediction by ZEFSAII (Michael W. Deem and Ramdas Pophale) SiO2 
 PCOD9012909
Probable space group: P -1
;
_chemical_formula_sum "Si O2"
_cell_formula_units_Z 14
_cell_length_a 26.691726
_cell_length_b 7.020126
_cell_length_c 9.152930
_cell_angle_alpha 131.295335
_cell_angle_beta 146.205379
_cell_angle_gamma 42.441610
_cell_volume 638.769254
_symmetry_space_group_name_H-M "P -1"
_symmetry_group_IT_number 2
_symmetry_cell_setting 'triclinic'
loop_
_space_group_symop_operation_xyz
x,y,z
-x,-y,-z
loop_
_atom_site_type_symbol
_atom_site_label
_atom_site_fract_x
_atom_site_fract_y
_atom_site_fract_z
Si Si1 0.444730 0.817541 0.972964
Si Si2 0.926855 0.301025 0.557923
Si Si3 0.625734 0.854245 0.293574
Si Si4 0.702828 0.390936 0.010085
Si Si5 0.966455 0.305338 0.004119
Si Si6 0.389331 0.220673 0.277048
Si Si7 0.242966 0.257035 0.180817
O O1 0.531528 0.918454 0.203425
O O2 0.370040 0.009327 0.013319
O O3 0.500000 0.500000 0.000000
O O4 0.390672 0.886647 0.721148
O O5 0.812187 0.389659 0.273405
O O6 0.940340 0.275723 0.755118
O O7 0.000000 0.000000 0.500000
O O8 0.956385 0.556550 0.728700
O O9 0.639067 0.597435 0.090156
O O10 0.722402 0.748450 0.572306
O O11 0.636239 0.519384 0.766821
O O12 0.728343 0.069704 0.943825
O O13 0.872658 0.524388 0.984679
O O14 0.000000 0.000000 0.000000
O O15 0.310496 0.334835 0.274589
O O16 0.500000 0.000000 0.500000
#
# Coordination Sequence:
#
# PCOD9012909 Si02
#       7
#     2   2   2   2   2   2   2
#     4  10  21  41  62  88 130 179 219 276 325 384
#     4  11  24  48  71  99 138 176 226 286 350 411
#     4  10  22  41  62  93 131 173 227 268 327 396
#     4  11  25  44  68  99 138 181 225 276 343 407
#     4  11  27  46  73 103 135 176 229 289 348 410
#     4  11  25  41  62 103 135 175 231 273 329 400
#     4  12  24  43  69  97 136 180 222 280 343 405
#
# _framework density 21.917145999999999
#
# number of rings (size 3 to 8) (size 9 to 14) (size 15 to 20)
#    0.000    1.143    4.286    0.857    4.000    2.286 
#    5.143    0.000    0.000    0.000    0.000    0.000 
#    0.000    0.000    0.000    0.000    0.000    0.000 
#
# Total GULP energy -78091.617770 kJ/mol
# GULP energy per Si atom -5577.972698 kJ/mol
# Density = 2.186726 g / cm^3
# Si number density = 21.917146 Si / 1000 Ang^3
#
#
#
# Elastic Constant Matrix: (Units=GPa)
#
#
# Indices 1 2 3 4 5 6 
#
# 1 85.5520 28.0392 12.1336 -5.5172 -13.2906 4.3255
# 2 28.0392 127.7610 7.5475 1.0460 -7.8758 6.1138
# 3 12.1336 7.5475 55.3832 1.6170 -10.1280 9.5695
# 4 -5.5172 1.0460 1.6170 27.7938 -6.7938 -7.4086
# 5 -13.2906 -7.8758 -10.1280 -6.7938 27.4817 -0.0842
# 6 4.3255 6.1138 9.5695 -7.4086 -0.0842 34.5812
#
#
#
# Elastic Compliance Matrix: (Units=1/GPa)
#
#
# Indices 1 2 3 4 5 6 
#
# 1 0.014109 -0.002637 -0.001693 0.004660 0.006596 0.000184
# 2 -0.002637 0.008541 -0.000168 -0.000982 0.000864 -0.001342
# 3 -0.001693 -0.000168 0.020655 -0.001521 0.006351 -0.005785
# 4 0.004660 -0.000982 -0.001521 0.042373 0.011915 0.009118
# 5 0.006596 0.000864 0.006351 0.011915 0.045111 -0.000073
# 6 0.000184 -0.001342 -0.005785 0.009118 -0.000073 0.032686
#
#
# Mechanical properties :
#
#
# Convention : Reuss Voigt Hill
#
# Bulk Modulus (GPa) = 29.14625 40.45965 34.80295
# Shear Modulus (GPa) = 27.18755 32.70308 29.94531
#
# Velocity S-wave (km/s) = 3.52585 3.86699 3.70035
# Velocity P-wave (km/s) = 5.46834 6.19988 5.84556
#
# Compressibility (1/GPa) = 0.03430973
#
# Stress axis : x y z
#
# Youngs Moduli (GPa) = 70.87629 117.07918 48.41369
#
# Poissons Ratio (x) = 0.30871 0.08198
# Poissons Ratio (y) = 0.18689 0.00812
# Poissons Ratio (z) = 0.12002 0.01964
#
# Static dielectric constant tensor:
#      x y z
#    x 1.809060 -0.014980 -0.007820 
#    y -0.014980 1.882100 -0.051730 
#    z -0.007820 -0.051730 1.865350 
# 
# From -- ./inp_files/91182.got.cif
#   From: 2010.05.17/outbox.cif.g08.bks.cpg/sg2_46_cif.got.tgz:91182.got - 2010.06.03 11:33:40.
