data_PCOD9012176
_publ_section_title
;
Structure prediction by ZEFSAII (Michael W. Deem and Ramdas Pophale) SiO2 
 PCOD9012176
Probable space group: P -1
;
_chemical_formula_sum "Si O2"
_cell_formula_units_Z 16
_cell_length_a 19.047918
_cell_length_b 5.229654
_cell_length_c 16.071990
_cell_angle_alpha 80.336723
_cell_angle_beta 157.020459
_cell_angle_gamma 99.151305
_cell_volume 616.121882
_symmetry_space_group_name_H-M "P -1"
_symmetry_group_IT_number 2
_symmetry_cell_setting 'triclinic'
loop_
_space_group_symop_operation_xyz
x,y,z
-x,-y,-z
loop_
_atom_site_type_symbol
_atom_site_label
_atom_site_fract_x
_atom_site_fract_y
_atom_site_fract_z
Si Si1 0.086315 0.314287 0.489419
Si Si2 0.558524 0.266097 0.894228
Si Si3 0.997539 0.144518 0.835093
Si Si4 0.764420 0.240429 0.270408
Si Si5 0.315443 0.170023 0.057967
Si Si6 0.810388 0.578673 0.828663
Si Si7 0.834050 0.667969 0.605405
Si Si8 0.466495 0.839914 0.387797
O O1 0.206470 0.564597 0.632128
O O2 0.045685 0.312917 0.347885
O O3 0.909742 0.325170 0.353361
O O4 0.184895 0.048163 0.633414
O O5 0.624951 0.541406 0.915672
O O6 0.357590 0.245001 0.641679
O O7 0.665891 0.018921 0.990031
O O8 0.580411 0.263177 0.017691
O O9 0.850581 0.370379 0.666733
O O10 0.119360 0.177690 0.884243
O O11 0.128339 0.194725 0.052996
O O12 0.908424 0.865956 0.743751
O O13 0.435522 0.033090 0.267554
O O14 0.646674 0.668770 0.586060
O O15 0.707337 0.351218 0.781378
O O16 0.000000 0.500000 0.000000
O O17 0.500000 0.000000 0.500000
#
# Coordination Sequence:
#
# PCOD9012176 Si02
#       8
#     2   2   2   2   2   2   2   2
#     4  10  21  40  68  99 134 182 233 290 338 432
#     4  12  27  44  70 107 142 189 230 297 362 417
#     4  12  25  48  71 101 142 192 236 289 358 427
#     4  10  21  40  68  98 134 184 236 277 356 418
#     4  12  25  47  73  98 144 190 238 291 352 433
#     4  11  27  48  77 109 146 192 244 306 366 433
#     4  12  27  44  69 107 146 180 238 295 359 421
#     4  11  25  48  76 107 144 193 246 299 368 433
#
# _framework density 25.968890999999999
#
# number of rings (size 3 to 8) (size 9 to 14) (size 15 to 20)
#    0.000    0.750    1.250    6.000    3.500    4.500 
#    2.250    0.000    0.000    0.000    0.000    0.000 
#    0.000    0.000    0.000    0.000    0.000    0.000 
#
# Total GULP energy -89748.018533 kJ/mol
# GULP energy per Si atom -5609.251158 kJ/mol
# Density = 2.590978 g / cm^3
# Si number density = 25.968891 Si / 1000 Ang^3
#
#
#
# Elastic Constant Matrix: (Units=GPa)
#
#
# Indices 1 2 3 4 5 6 
#
# 1 58.7408 39.7126 18.7181 13.5169 5.0115 -7.1229
# 2 39.7126 129.7986 52.8165 11.3473 1.9206 -22.4928
# 3 18.7181 52.8165 142.7329 -1.6973 1.8411 -10.0698
# 4 13.5169 11.3473 -1.6973 46.1970 -5.3229 -10.7514
# 5 5.0115 1.9206 1.8411 -5.3229 55.5749 -0.1722
# 6 -7.1229 -22.4928 -10.0698 -10.7514 -0.1722 46.3925
#
#
#
# Elastic Compliance Matrix: (Units=1/GPa)
#
#
# Indices 1 2 3 4 5 6 
#
# 1 0.022955 -0.006360 -0.000769 -0.005702 -0.002374 -0.001056
# 2 -0.006360 0.011647 -0.003203 -0.000170 0.000273 0.003937
# 3 -0.000769 -0.003203 0.008342 0.001433 0.000042 0.000472
# 4 -0.005702 -0.000170 0.001433 0.024938 0.002877 0.005143
# 5 -0.002374 0.000273 0.000042 0.002877 0.018474 0.000512
# 6 -0.001056 0.003937 0.000472 0.005143 0.000512 0.024598
#
#
# Mechanical properties :
#
#
# Convention : Reuss Voigt Hill
#
# Bulk Modulus (GPa) = 44.88366 61.52962 53.20664
# Shear Modulus (GPa) = 35.95984 44.30122 40.13053
#
# Velocity S-wave (km/s) = 3.72523 4.13478 3.93533
# Velocity P-wave (km/s) = 5.98534 6.82204 6.41734
#
# Compressibility (1/GPa) = 0.02227982
#
# Stress axis : x y z
#
# Youngs Moduli (GPa) = 43.56323 85.86210 119.87436
#
# Poissons Ratio (x) = 0.54607 0.09214
# Poissons Ratio (y) = 0.27706 0.38401
# Poissons Ratio (z) = 0.03348 0.27506
#
# Static dielectric constant tensor:
#      x y z
#    x 2.060430 -0.014000 0.043260 
#    y -0.014000 1.995010 -0.001440 
#    z 0.043260 -0.001440 2.072060 
# 
# From -- ./inp_files/576799.got.cif
#   From: 2010.05.17/outbox.cif.g08.bks.cpg/sg2_289_cif.got.tgz:576799.got - 2010.06.03 11:33:40.
