data_PCOD9012499
_publ_section_title
;
Structure prediction by ZEFSAII (Michael W. Deem and Ramdas Pophale) SiO2 
 PCOD9012499
Probable space group: P -1
;
_chemical_formula_sum "Si O2"
_cell_formula_units_Z 16
_cell_length_a 9.718282
_cell_length_b 24.017534
_cell_length_c 10.213593
_cell_angle_alpha 144.616080
_cell_angle_beta 39.023089
_cell_angle_gamma 152.443821
_cell_volume 625.457673
_symmetry_space_group_name_H-M "P -1"
_symmetry_group_IT_number 2
_symmetry_cell_setting 'triclinic'
loop_
_space_group_symop_operation_xyz
x,y,z
-x,-y,-z
loop_
_atom_site_type_symbol
_atom_site_label
_atom_site_fract_x
_atom_site_fract_y
_atom_site_fract_z
Si Si1 0.744964 0.882041 0.086549
Si Si2 0.954564 0.936472 0.553856
Si Si3 0.793101 0.703554 0.552870
Si Si4 0.314487 0.621325 0.064183
Si Si5 0.210724 0.406141 0.395782
Si Si6 0.442362 0.644579 0.303612
Si Si7 0.257897 0.840886 0.231053
Si Si8 0.040936 0.355208 0.145595
O O1 0.584013 0.921891 0.209696
O O2 0.475355 0.757677 0.136113
O O3 0.002132 0.983784 0.198087
O O4 0.179800 0.179977 0.189223
O O5 0.628893 0.784927 0.505503
O O6 0.206688 0.929535 0.374491
O O7 0.000000 0.000000 0.500000
O O8 0.434063 0.567220 0.540046
O O9 0.898604 0.663824 0.515766
O O10 0.989508 0.749633 0.364523
O O11 0.540030 0.600709 0.835624
O O12 0.290286 0.628977 0.250616
O O13 0.000000 0.500000 0.000000
O O14 0.984397 0.333361 0.300400
O O15 0.207482 0.506560 0.287952
O O16 0.712506 0.652797 0.081540
O O17 0.207031 0.744886 0.972334
#
# Coordination Sequence:
#
# PCOD9012499 Si02
#       8
#     2   2   2   2   2   2   2   2
#     4  11  23  39  63  94 126 167 218 259 316 379
#     4  11  22  40  64  92 123 175 218 252 314 386
#     4  10  21  37  62  93 131 166 210 262 323 371
#     4  10  17  29  56  92 124 156 209 260 308 373
#     4   9  18  34  56  93 130 170 203 253 329 384
#     4   9  16  29  53  89 118 157 214 249 301 379
#     4  11  23  41  68  95 128 164 216 266 315 375
#     4   9  17  33  63  90 120 165 208 254 322 373
#
# _framework density 25.581267
#
# number of rings (size 3 to 8) (size 9 to 14) (size 15 to 20)
#    0.000    2.000    1.250    4.875    1.750    0.500 
#    0.000    0.625    2.750    4.500    0.000    0.000 
#    0.000    0.000    0.000    0.000    0.000    0.000 
#
# Total GULP energy -89627.317983 kJ/mol
# GULP energy per Si atom -5601.707374 kJ/mol
# Density = 2.552304 g / cm^3
# Si number density = 25.581267 Si / 1000 Ang^3
#
#
#
# Elastic Constant Matrix: (Units=GPa)
#
#
# Indices 1 2 3 4 5 6 
#
# 1 173.1458 47.2573 58.6288 7.7370 27.4845 -10.1693
# 2 47.2573 84.6867 53.3661 -3.4391 13.4004 -11.3660
# 3 58.6288 53.3661 149.0922 -4.8561 26.4162 -0.8684
# 4 7.7370 -3.4391 -4.8561 39.6005 -6.1814 11.3616
# 5 27.4845 13.4004 26.4162 -6.1814 45.1642 2.1519
# 6 -10.1693 -11.3660 -0.8684 11.3616 2.1519 38.9366
#
#
#
# Elastic Compliance Matrix: (Units=1/GPa)
#
#
# Indices 1 2 3 4 5 6 
#
# 1 0.007902 -0.002625 -0.001614 -0.003228 -0.003643 0.002405
# 2 -0.002625 0.017057 -0.004908 0.000062 -0.000785 0.004210
# 3 -0.001614 -0.004908 0.009650 0.001127 -0.002966 -0.001804
# 4 -0.003228 0.000062 0.001127 0.029748 0.005825 -0.009802
# 5 -0.003643 -0.000785 -0.002966 0.005825 0.027336 -0.004457
# 6 0.002405 0.004210 -0.001804 -0.009802 -0.004457 0.030606
#
#
# Mechanical properties :
#
#
# Convention : Reuss Voigt Hill
#
# Bulk Modulus (GPa) = 61.28387 80.60323 70.94355
# Shear Modulus (GPa) = 34.23953 41.25177 37.74565
#
# Velocity S-wave (km/s) = 3.66247 4.02005 3.84542
# Velocity P-wave (km/s) = 6.47251 7.28868 6.89269
#
# Compressibility (1/GPa) = 0.01631751
#
# Stress axis : x y z
#
# Youngs Moduli (GPa) = 126.55160 58.62634 103.62488
#
# Poissons Ratio (x) = 0.15387 0.16721
# Poissons Ratio (y) = 0.33214 0.50856
# Poissons Ratio (z) = 0.20421 0.28772
#
# Static dielectric constant tensor:
#      x y z
#    x 2.065580 0.026910 -0.033990 
#    y 0.026910 1.991760 -0.047290 
#    z -0.033990 -0.047290 2.079240 
# 
# From -- ./inp_files/405517.got.cif
#   From: 2010.05.17/outbox.cif.g08.bks.cpg/sg2_203_cif.got.tgz:405517.got - 2010.06.03 11:33:40.
