data_PCOD9012024
_publ_section_title
;
Structure prediction by ZEFSAII (Michael W. Deem and Ramdas Pophale) SiO2 
 PCOD9012024
Probable space group: P -1
;
_chemical_formula_sum "Si O2"
_cell_formula_units_Z 16
_cell_length_a 11.143841
_cell_length_b 10.090551
_cell_length_c 14.319033
_cell_angle_alpha 64.242157
_cell_angle_beta 97.233606
_cell_angle_gamma 47.367073
_cell_volume 824.856497
_symmetry_space_group_name_H-M "P -1"
_symmetry_group_IT_number 2
_symmetry_cell_setting 'triclinic'
loop_
_space_group_symop_operation_xyz
x,y,z
-x,-y,-z
loop_
_atom_site_type_symbol
_atom_site_label
_atom_site_fract_x
_atom_site_fract_y
_atom_site_fract_z
Si Si1 0.368537 0.043413 0.400219
Si Si2 0.016357 0.023106 0.607739
Si Si3 0.946381 0.335859 0.273442
Si Si4 0.801795 0.746372 0.004096
Si Si5 0.478284 0.585950 0.865398
Si Si6 0.433654 0.411478 0.565533
Si Si7 0.509343 0.287169 0.821776
Si Si8 0.742957 0.619615 0.873413
O O1 0.165052 0.170535 0.389699
O O2 0.298289 0.242918 0.263191
O O3 0.500000 0.000000 0.500000
O O4 0.493995 0.793420 0.431543
O O5 0.818366 0.320998 0.523996
O O6 0.000913 0.876524 0.699179
O O7 0.000000 0.000000 0.500000
O O8 0.239895 0.859146 0.720056
O O9 0.885287 0.527207 0.139317
O O10 0.734676 0.517935 0.254056
O O11 0.001646 0.636813 0.015340
O O12 0.668369 0.798736 0.895130
O O13 0.654305 0.011095 0.957488
O O14 0.544774 0.392746 0.857955
O O15 0.626841 0.580550 0.875029
O O16 0.500000 0.500000 0.000000
O O17 0.500000 0.500000 0.500000
O O18 0.543586 0.283622 0.716831
#
# Coordination Sequence:
#
# PCOD9012024 Si02
#       8
#     2   2   2   2   2   2   2   2
#     4  11  25  41  62  96 133 175 220 280 337 385
#     4  11  22  43  70  96 134 179 225 271 336 401
#     4  10  21  40  68  90 130 173 217 270 334 398
#     4  10  21  42  67  94 125 177 217 265 340 404
#     4  11  25  43  67 100 136 174 218 284 335 384
#     4  12  24  41  69  98 128 184 230 267 332 416
#     4  11  23  42  69  97 128 174 229 272 329 410
#     4  10  22  40  65  91 133 168 213 276 335 388
#
# _framework density 19.397314000000001
#
# number of rings (size 3 to 8) (size 9 to 14) (size 15 to 20)
#    0.000    1.250    5.000    1.875    3.500    1.500 
#    6.750    1.250    0.000    0.000    0.000    0.000 
#    0.000    0.000    0.000    0.000    0.000    0.000 
#
# Total GULP energy -89147.699682 kJ/mol
# GULP energy per Si atom -5571.731230 kJ/mol
# Density = 1.935317 g / cm^3
# Si number density = 19.397314 Si / 1000 Ang^3
#
#
#
# Elastic Constant Matrix: (Units=GPa)
#
#
# Indices 1 2 3 4 5 6 
#
# 1 163.8888 51.7997 39.8158 4.1338 10.7537 20.5144
# 2 51.7997 88.7579 32.3405 5.0618 9.8700 17.7262
# 3 39.8158 32.3405 85.4042 5.2481 2.9095 10.8844
# 4 4.1338 5.0618 5.2481 32.2568 3.8263 3.0698
# 5 10.7537 9.8700 2.9095 3.8263 34.4451 1.0685
# 6 20.5144 17.7262 10.8844 3.0698 1.0685 21.7742
#
#
#
# Elastic Compliance Matrix: (Units=1/GPa)
#
#
# Indices 1 2 3 4 5 6 
#
# 1 0.008178 -0.003037 -0.002105 0.000334 -0.001413 -0.004158
# 2 -0.003037 0.016416 -0.003584 -0.000422 -0.003142 -0.008497
# 3 -0.002105 -0.003584 0.014380 -0.001387 0.000690 -0.002126
# 4 0.000334 -0.000422 -0.001387 0.031988 -0.003307 -0.003625
# 5 -0.001413 -0.003142 0.000690 -0.003307 0.030605 0.002509
# 6 -0.004158 -0.008497 -0.002126 -0.003625 0.002509 0.058211
#
#
# Mechanical properties :
#
#
# Convention : Reuss Voigt Hill
#
# Bulk Modulus (GPa) = 46.46687 65.10700 55.78693
# Shear Modulus (GPa) = 27.11451 31.96820 29.54135
#
# Velocity S-wave (km/s) = 3.74284 4.06405 3.90675
# Velocity P-wave (km/s) = 6.53343 7.46055 7.01233
#
# Compressibility (1/GPa) = 0.02152071
#
# Stress axis : x y z
#
# Youngs Moduli (GPa) = 122.28305 60.91763 69.53963
#
# Poissons Ratio (x) = 0.18502 0.14637
# Poissons Ratio (y) = 0.37140 0.24925
# Poissons Ratio (z) = 0.25740 0.21835
#
# Static dielectric constant tensor:
#      x y z
#    x 1.585850 -0.083780 -0.192790 
#    y -0.083780 1.699830 -0.072480 
#    z -0.192790 -0.072480 1.372500 
# 
# From -- ./inp_files/208993.got.cif
#   From: 2010.05.17/outbox.cif.g08.bks.cpg/sg2_105_cif.got.tgz:208993.got - 2010.06.03 11:33:40.
