data_PCOD9012185
_publ_section_title
;
Structure prediction by ZEFSAII (Michael W. Deem and Ramdas Pophale) SiO2 
 PCOD9012185
Probable space group: P -1
;
_chemical_formula_sum "Si O2"
_cell_formula_units_Z 12
_cell_length_a 15.870403
_cell_length_b 9.862673
_cell_length_c 15.645901
_cell_angle_alpha 141.563726
_cell_angle_beta 149.331122
_cell_angle_gamma 25.985227
_cell_volume 546.744131
_symmetry_space_group_name_H-M "P -1"
_symmetry_group_IT_number 2
_symmetry_cell_setting 'triclinic'
loop_
_space_group_symop_operation_xyz
x,y,z
-x,-y,-z
loop_
_atom_site_type_symbol
_atom_site_label
_atom_site_fract_x
_atom_site_fract_y
_atom_site_fract_z
Si Si1 0.463559 0.669631 0.140497
Si Si2 0.613139 0.070679 0.259212
Si Si3 0.987272 0.291635 0.442255
Si Si4 0.177817 0.653985 0.254304
Si Si5 0.066300 0.378319 0.128811
Si Si6 0.632864 0.624773 0.977959
O O1 0.716651 0.483207 0.308190
O O2 0.317123 0.028605 0.184948
O O3 0.500000 0.500000 0.000000
O O4 0.327643 0.636498 0.069438
O O5 0.448003 0.352003 0.320224
O O6 0.870895 0.823489 0.402035
O O7 0.531125 0.895846 0.090252
O O8 0.547513 0.225959 0.185084
O O9 0.000000 0.500000 0.500000
O O10 0.106760 0.970630 0.343139
O O11 0.100367 0.600836 0.246616
O O12 0.042474 0.650378 0.060377
O O13 0.874492 0.505123 0.096282
#
# Coordination Sequence:
#
# PCOD9012185 Si02
#       6
#     2   2   2   2   2   2
#     4  12  23  41  67  95 131 170 219 265 322 387
#     4  10  23  42  66  94 135 169 220 260 325 384
#     4  12  25  40  67  99 131 169 220 272 318 382
#     4  10  21  40  69  95 128 172 217 265 320 387
#     4  10  21  40  68  99 127 168 221 264 319 389
#     4  10  23  42  68  95 131 174 216 266 326 387
#
# _framework density 21.948111000000001
#
# number of rings (size 3 to 8) (size 9 to 14) (size 15 to 20)
#    0.000    1.333    1.667    4.000    7.000    0.667 
#    0.000    0.833    0.000    0.000    0.000    0.000 
#    0.000    0.000    0.000    0.000    0.000    0.000 
#
# Total GULP energy -67017.997552 kJ/mol
# GULP energy per Si atom -5584.833129 kJ/mol
# Density = 2.189816 g / cm^3
# Si number density = 21.948111 Si / 1000 Ang^3
#
#
#
# Elastic Constant Matrix: (Units=GPa)
#
#
# Indices 1 2 3 4 5 6 
#
# 1 75.8906 37.9173 24.0376 9.2322 12.2741 0.2155
# 2 37.9173 134.0912 37.1628 -0.1132 11.2789 -2.1767
# 3 24.0376 37.1628 81.4831 -13.4643 -9.8682 -2.6129
# 4 9.2322 -0.1132 -13.4643 57.3939 9.2278 11.7025
# 5 12.2741 11.2789 -9.8682 9.2278 21.1871 2.1594
# 6 0.2155 -2.1767 -2.6129 11.7025 2.1594 26.3680
#
#
#
# Elastic Compliance Matrix: (Units=1/GPa)
#
#
# Indices 1 2 3 4 5 6 
#
# 1 0.018530 -0.002620 -0.006043 -0.002878 -0.011025 0.001214
# 2 -0.002620 0.009946 -0.004432 0.000204 -0.006011 0.000805
# 3 -0.006043 -0.004432 0.018168 0.003358 0.012968 -0.001069
# 4 -0.002878 0.000204 0.003358 0.021283 -0.005266 -0.008641
# 5 -0.011025 -0.006011 0.012968 -0.005266 0.065337 -0.002135
# 6 0.001214 0.000805 -0.001069 -0.008641 -0.002135 0.041886
#
#
# Mechanical properties :
#
#
# Convention : Reuss Voigt Hill
#
# Bulk Modulus (GPa) = 48.89238 54.41114 51.65176
# Shear Modulus (GPa) = 24.02042 33.81295 28.91669
#
# Velocity S-wave (km/s) = 3.31179 3.92929 3.63368
# Velocity P-wave (km/s) = 6.07854 6.74021 6.41790
#
# Compressibility (1/GPa) = 0.02045308
#
# Stress axis : x y z
#
# Youngs Moduli (GPa) = 53.96672 100.54679 55.04328
#
# Poissons Ratio (x) = 0.26347 0.33263
# Poissons Ratio (y) = 0.14141 0.24392
# Poissons Ratio (z) = 0.32613 0.44557
#
# Static dielectric constant tensor:
#      x y z
#    x 1.845990 -0.028980 -0.000220 
#    y -0.028980 1.845070 -0.014640 
#    z -0.000220 -0.014640 1.814270 
# 
# From -- ./inp_files/152835.got.cif
#   From: 2010.05.17/outbox.cif.g08.bks.cpg/sg2_77_cif.got.tgz:152835.got - 2010.06.03 11:33:40.
