data_PCOD9012056
_publ_section_title
;
Structure prediction by ZEFSAII (Michael W. Deem and Ramdas Pophale) SiO2 
 PCOD9012056
Probable space group: P -1
;
_chemical_formula_sum "Si O2"
_cell_formula_units_Z 16
_cell_length_a 18.796383
_cell_length_b 8.490936
_cell_length_c 19.947442
_cell_angle_alpha 55.108544
_cell_angle_beta 21.752604
_cell_angle_gamma 43.262640
_cell_volume 737.210870
_symmetry_space_group_name_H-M "P -1"
_symmetry_group_IT_number 2
_symmetry_cell_setting 'triclinic'
loop_
_space_group_symop_operation_xyz
x,y,z
-x,-y,-z
loop_
_atom_site_type_symbol
_atom_site_label
_atom_site_fract_x
_atom_site_fract_y
_atom_site_fract_z
Si Si1 0.384207 0.816575 0.581517
Si Si2 0.150277 0.019458 0.418362
Si Si3 0.086211 0.749169 0.294999
Si Si4 0.754314 0.519868 0.205348
Si Si5 0.471012 0.746460 0.887955
Si Si6 0.187336 0.370755 0.643712
Si Si7 0.340465 0.269509 0.907179
Si Si8 0.158461 0.453925 0.497143
O O1 0.550963 0.712075 0.392933
O O2 0.218392 0.728793 0.748113
O O3 0.587094 0.683811 0.497230
O O4 0.241620 0.109796 0.645853
O O5 0.049173 0.053086 0.573850
O O6 0.068659 0.286450 0.403652
O O7 0.445974 0.793611 0.213987
O O8 0.000000 0.000000 0.500000
O O9 0.311199 0.483791 0.198897
O O10 0.893160 0.731814 0.432815
O O11 0.217264 0.799028 0.114125
O O12 0.658604 0.614898 0.190731
O O13 0.000000 0.500000 0.000000
O O14 0.582725 0.651952 0.738993
O O15 0.423873 0.998710 0.883125
O O16 0.160172 0.483070 0.567299
O O17 0.932195 0.553892 0.864278
#
# Coordination Sequence:
#
# PCOD9012056 Si02
#       8
#     2   2   2   2   2   2   2   2
#     4  10  25  51  71 101 145 177 235 303 353 422
#     4  11  25  42  67 104 150 181 229 290 345 409
#     4  10  21  42  67  92 134 191 230 277 332 406
#     4  11  24  48  79 102 132 187 239 290 355 424
#     4  10  21  40  68  93 131 182 236 274 330 414
#     4  11  26  44  71 107 141 185 232 297 364 404
#     4  12  24  42  71 107 139 185 235 285 349 422
#     4  11  22  45  66  97 141 184 228 281 345 414
#
# _framework density 21.703422
#
# number of rings (size 3 to 8) (size 9 to 14) (size 15 to 20)
#    0.000    1.250    3.750    1.500    3.500    5.000 
#    0.000    0.000    0.000    0.000    0.000    0.000 
#    0.000    0.000    0.000    0.000    0.000    0.000 
#
# Total GULP energy -89455.944992 kJ/mol
# GULP energy per Si atom -5590.996562 kJ/mol
# Density = 2.165402 g / cm^3
# Si number density = 21.703422 Si / 1000 Ang^3
#
#
#
# Elastic Constant Matrix: (Units=GPa)
#
#
# Indices 1 2 3 4 5 6 
#
# 1 93.7877 7.3840 37.8514 -9.4433 13.3116 -5.5625
# 2 7.3840 52.5982 35.2949 -4.1710 -3.9450 4.2176
# 3 37.8514 35.2949 90.7076 -16.6880 5.4681 -11.1248
# 4 -9.4433 -4.1710 -16.6880 35.7801 -0.0322 -0.1646
# 5 13.3116 -3.9450 5.4681 -0.0322 38.5917 -7.1226
# 6 -5.5625 4.2176 -11.1248 -0.1646 -7.1226 31.8248
#
#
#
# Elastic Compliance Matrix: (Units=1/GPa)
#
#
# Indices 1 2 3 4 5 6 
#
# 1 0.013571 0.002124 -0.006204 0.000928 -0.003753 -0.000913
# 2 0.002124 0.028345 -0.013445 -0.002438 0.002684 -0.007497
# 3 -0.006204 -0.013445 0.021091 0.006668 -0.000752 0.007936
# 4 0.000928 -0.002438 0.006668 0.031031 -0.000979 0.002757
# 5 -0.003753 0.002684 -0.000752 -0.000979 0.028529 0.005105
# 6 -0.000913 -0.007497 0.007936 0.002757 0.005105 0.036187
#
#
# Mechanical properties :
#
#
# Convention : Reuss Voigt Hill
#
# Bulk Modulus (GPa) = 35.77253 44.23932 40.00593
# Shear Modulus (GPa) = 24.61541 31.67685 28.14613
#
# Velocity S-wave (km/s) = 3.37140 3.82453 3.60509
# Velocity P-wave (km/s) = 5.62791 6.31906 5.98347
#
# Compressibility (1/GPa) = 0.02795441
#
# Stress axis : x y z
#
# Youngs Moduli (GPa) = 73.68593 35.27918 47.41463
#
# Poissons Ratio (x) = -0.07492 0.29418
# Poissons Ratio (y) = -0.15647 0.63751
# Poissons Ratio (z) = 0.45718 0.47434
#
# Static dielectric constant tensor:
#      x y z
#    x 1.769950 0.011130 -0.027390 
#    y 0.011130 1.850500 -0.021440 
#    z -0.027390 -0.021440 1.769910 
# 
# From -- ./inp_files/556078.got.cif
#   From: 2010.05.17/outbox.cif.g08.bks.cpg/sg2_279_cif.got.tgz:556078.got - 2010.06.03 11:33:40.
