data_PCOD9012640
_publ_section_title
;
Structure prediction by ZEFSAII (Michael W. Deem and Ramdas Pophale) SiO2 
 PCOD9012640
Probable space group: P -1
;
_chemical_formula_sum "Si O2"
_cell_formula_units_Z 14
_cell_length_a 9.015032
_cell_length_b 15.624396
_cell_length_c 13.054218
_cell_angle_alpha 46.666382
_cell_angle_beta 56.941380
_cell_angle_gamma 26.117158
_cell_volume 574.232284
_symmetry_space_group_name_H-M "P -1"
_symmetry_group_IT_number 2
_symmetry_cell_setting 'triclinic'
loop_
_space_group_symop_operation_xyz
x,y,z
-x,-y,-z
loop_
_atom_site_type_symbol
_atom_site_label
_atom_site_fract_x
_atom_site_fract_y
_atom_site_fract_z
Si Si1 0.309840 0.843341 0.893608
Si Si2 0.258553 0.612633 0.829325
Si Si3 0.281236 0.240942 0.357525
Si Si4 0.269772 0.627303 0.584611
Si Si5 0.562794 0.875201 0.934429
Si Si6 0.216444 0.304863 0.766185
Si Si7 0.091693 0.962749 0.297687
O O1 0.533171 0.793885 0.771944
O O2 0.378637 0.872160 0.949299
O O3 0.462523 0.626686 0.023624
O O4 0.954319 0.038958 0.804208
O O5 0.400932 0.559323 0.706393
O O6 0.900371 0.738707 0.861870
O O7 0.160742 0.788259 0.779334
O O8 0.929813 0.380800 0.338078
O O9 0.140153 0.421543 0.339855
O O10 0.500000 0.000000 0.500000
O O11 0.500000 0.500000 0.500000
O O12 0.029091 0.880003 0.452558
O O13 0.277555 0.141450 0.830479
O O14 0.704627 0.762170 0.086993
O O15 0.526222 0.207948 0.685943
#
# Coordination Sequence:
#
# PCOD9012640 Si02
#       7
#     2   2   2   2   2   2   2
#     4  12  23  42  70 104 130 181 226 281 339 399
#     4  11  23  43  70  99 135 183 228 274 343 404
#     4  12  23  42  71  96 135 180 223 280 336 404
#     4  12  24  43  68  96 133 182 228 277 337 410
#     4  10  21  40  72  98 134 177 226 281 333 399
#     4  10  22  43  66 101 136 176 226 275 337 404
#     4  11  25  42  67  99 145 174 219 284 345 401
#
# _framework density 24.380379999999999
#
# number of rings (size 3 to 8) (size 9 to 14) (size 15 to 20)
#    0.000    0.857    5.714    2.143    0.000    0.571 
#    0.000    0.714    0.000    0.000    0.000    0.000 
#    0.000    0.000    0.000    0.000    0.000    0.000 
#
# Total GULP energy -78246.705925 kJ/mol
# GULP energy per Si atom -5589.050423 kJ/mol
# Density = 2.432489 g / cm^3
# Si number density = 24.380380 Si / 1000 Ang^3
#
#
#
# Elastic Constant Matrix: (Units=GPa)
#
#
# Indices 1 2 3 4 5 6 
#
# 1 46.1487 -0.1819 0.3095 4.2996 -11.3064 1.8577
# 2 -0.1819 78.5481 35.1297 -9.9391 -8.2982 14.0867
# 3 0.3095 35.1297 133.6060 -6.6021 -17.4688 8.0636
# 4 4.2996 -9.9391 -6.6021 56.6833 8.5441 -11.4427
# 5 -11.3064 -8.2982 -17.4688 8.5441 36.9404 -4.1341
# 6 1.8577 14.0867 8.0636 -11.4427 -4.1341 22.7469
#
#
#
# Elastic Compliance Matrix: (Units=1/GPa)
#
#
# Indices 1 2 3 4 5 6 
#
# 1 0.024174 0.000631 0.000884 -0.003476 0.008439 -0.002893
# 2 0.000631 0.015970 -0.003539 0.000518 0.001066 -0.008233
# 3 0.000884 -0.003539 0.008914 -0.000314 0.003705 -0.000525
# 4 -0.003476 0.000518 -0.000314 0.020615 -0.004793 0.009574
# 5 0.008439 0.001066 0.003705 -0.004793 0.032854 0.000897
# 6 -0.002893 -0.008233 -0.000525 0.009574 0.000897 0.054462
#
#
# Mechanical properties :
#
#
# Convention : Reuss Voigt Hill
#
# Bulk Modulus (GPa) = 22.21708 36.53525 29.37617
# Shear Modulus (GPa) = 28.40306 38.14384 33.27345
#
# Velocity S-wave (km/s) = 3.41691 3.95971 3.69828
# Velocity P-wave (km/s) = 4.96986 5.99364 5.50560
#
# Compressibility (1/GPa) = 0.04501041
#
# Stress axis : x y z
#
# Youngs Moduli (GPa) = 41.36761 62.61870 112.18747
#
# Poissons Ratio (x) = -0.03952 -0.09921
# Poissons Ratio (y) = -0.02611 0.39699
# Poissons Ratio (z) = -0.03658 0.22158
#
# Static dielectric constant tensor:
#      x y z
#    x 1.946570 0.009960 0.027050 
#    y 0.009960 2.016010 -0.013160 
#    z 0.027050 -0.013160 1.895080 
# 
# From -- ./inp_files/159254.got.cif
#   From: 2010.05.17/outbox.cif.g08.bks.cpg/sg2_80_cif.got.tgz:159254.got - 2010.06.03 11:33:40.
