data_PCOD9012505
_publ_section_title
;
Structure prediction by ZEFSAII (Michael W. Deem and Ramdas Pophale) SiO2 
 PCOD9012505
Probable space group: P -1
;
_chemical_formula_sum "Si O2"
_cell_formula_units_Z 14
_cell_length_a 5.284730
_cell_length_b 17.196564
_cell_length_c 8.375400
_cell_angle_alpha 134.188753
_cell_angle_beta 99.096348
_cell_angle_gamma 70.462130
_cell_volume 511.176114
_symmetry_space_group_name_H-M "P -1"
_symmetry_group_IT_number 2
_symmetry_cell_setting 'triclinic'
loop_
_space_group_symop_operation_xyz
x,y,z
-x,-y,-z
loop_
_atom_site_type_symbol
_atom_site_label
_atom_site_fract_x
_atom_site_fract_y
_atom_site_fract_z
Si Si1 0.570639 0.823589 0.829421
Si Si2 0.108156 0.639120 0.223186
Si Si3 0.597674 0.595493 0.973870
Si Si4 0.530180 0.873716 0.253038
Si Si5 0.148127 0.010388 0.871139
Si Si6 0.308564 0.420404 0.388416
Si Si7 0.910719 0.150948 0.603304
O O1 0.430824 0.905095 0.783035
O O2 0.619817 0.688364 0.638780
O O3 0.437681 0.870253 0.056475
O O4 0.834351 0.862624 0.938974
O O5 0.268693 0.542959 0.222563
O O6 0.097560 0.768233 0.436129
O O7 0.303690 0.612415 0.045565
O O8 0.812649 0.627278 0.156041
O O9 0.642531 0.638796 0.866056
O O10 0.360839 0.821904 0.283115
O O11 0.853027 0.824690 0.238263
O O12 0.500000 0.000000 0.500000
O O13 0.042862 0.973984 0.644417
O O14 0.000000 0.000000 0.000000
O O15 0.500000 0.500000 0.500000
O O16 0.000000 0.500000 0.500000
#
# Coordination Sequence:
#
# PCOD9012505 Si02
#       7
#     2   2   2   2   2   2   2
#     4  11  27  48  73 104 152 186 244 301 361 430
#     4  10  21  40  70  96 133 175 223 295 338 412
#     4  10  22  44  64 100 134 176 231 283 349 392
#     4  12  25  46  72 107 136 185 236 299 353 426
#     4  11  27  47  72 106 144 198 229 302 370 429
#     4  12  28  46  70 104 141 196 237 285 350 433
#     4  12  25  42  73 103 139 180 240 284 360 425
#
# _framework density 27.387822
#
# number of rings (size 3 to 8) (size 9 to 14) (size 15 to 20)
#    0.000    0.857    1.429    4.714    8.000    0.000 
#    0.000    0.000    0.000    0.000    0.000    0.000 
#    0.000    0.000    0.000    0.000    0.000    0.000 
#
# Total GULP energy -78217.816400 kJ/mol
# GULP energy per Si atom -5586.986886 kJ/mol
# Density = 2.732549 g / cm^3
# Si number density = 27.387822 Si / 1000 Ang^3
#
#
#
# Elastic Constant Matrix: (Units=GPa)
#
#
# Indices 1 2 3 4 5 6 
#
# 1 177.5320 27.7981 46.1267 4.1809 10.2421 15.7089
# 2 27.7981 121.6356 4.9427 15.4579 20.9582 13.3710
# 3 46.1267 4.9427 96.0675 2.6178 22.5797 4.8448
# 4 4.1809 15.4579 2.6178 56.1126 14.4869 7.5563
# 5 10.2421 20.9582 22.5797 14.4869 54.5757 7.6700
# 6 15.7089 13.3710 4.8448 7.5563 7.6700 50.9894
#
#
#
# Elastic Compliance Matrix: (Units=1/GPa)
#
#
# Indices 1 2 3 4 5 6 
#
# 1 0.006800 -0.001398 -0.003314 0.000023 0.000842 -0.001544
# 2 -0.001398 0.009396 0.001047 -0.001521 -0.003174 -0.001430
# 3 -0.003314 0.001047 0.013201 0.000725 -0.005463 0.000206
# 4 0.000023 -0.001521 0.000725 0.019666 -0.004675 -0.001888
# 5 0.000842 -0.003174 -0.005463 -0.004675 0.023123 -0.001693
# 6 -0.001544 -0.001430 0.000206 -0.001888 -0.001693 0.020977
#
#
# Mechanical properties :
#
#
# Convention : Reuss Voigt Hill
#
# Bulk Modulus (GPa) = 45.31533 61.44115 53.37824
# Shear Modulus (GPa) = 46.36159 53.42671 49.89415
#
# Velocity S-wave (km/s) = 4.11881 4.42152 4.27284
# Velocity P-wave (km/s) = 6.26108 6.96770 6.62382
#
# Compressibility (1/GPa) = 0.02206759
#
# Stress axis : x y z
#
# Youngs Moduli (GPa) = 147.05563 106.43284 75.75426
#
# Poissons Ratio (x) = 0.14878 0.25105
# Poissons Ratio (y) = 0.20556 -0.07935
# Poissons Ratio (z) = 0.48734 -0.11148
#
# Static dielectric constant tensor:
#      x y z
#    x 2.207090 -0.138860 0.030450 
#    y -0.138860 2.320550 0.125560 
#    z 0.030450 0.125560 2.550270 
# 
# From -- ./inp_files/139723.got.cif
#   From: 2010.05.17/outbox.cif.g08.bks.cpg/sg2_70_cif.got.tgz:139723.got - 2010.06.03 11:33:40.
