data_PCOD9012851
_publ_section_title
;
Structure prediction by ZEFSAII (Michael W. Deem and Ramdas Pophale) SiO2 
 PCOD9012851
Probable space group: P -1
;
_chemical_formula_sum "Si O2"
_cell_formula_units_Z 16
_cell_length_a 16.705973
_cell_length_b 16.150201
_cell_length_c 5.252176
_cell_angle_alpha 62.244499
_cell_angle_beta 74.428249
_cell_angle_gamma 49.819216
_cell_volume 957.011023
_symmetry_space_group_name_H-M "P -1"
_symmetry_group_IT_number 2
_symmetry_cell_setting 'triclinic'
loop_
_space_group_symop_operation_xyz
x,y,z
-x,-y,-z
loop_
_atom_site_type_symbol
_atom_site_label
_atom_site_fract_x
_atom_site_fract_y
_atom_site_fract_z
Si Si1 0.863185 0.578274 0.286433
Si Si2 0.577265 0.893233 0.778530
Si Si3 0.761976 0.792354 0.423798
Si Si4 0.921174 0.453897 0.916059
Si Si5 0.380278 0.969149 0.062085
Si Si6 0.091015 0.013093 0.923757
Si Si7 0.067554 0.220125 0.403359
Si Si8 0.205158 0.977864 0.389225
O O1 0.787767 0.709967 0.277779
O O2 0.846748 0.545874 0.069476
O O3 0.024180 0.448433 0.802094
O O4 0.870728 0.494426 0.621896
O O5 0.679289 0.796993 0.669997
O O6 0.500000 0.000000 0.500000
O O7 0.497845 0.872430 0.997254
O O8 0.608377 0.950011 0.876225
O O9 0.703533 0.931490 0.213648
O O10 0.870457 0.743164 0.543931
O O11 0.970738 0.326083 0.175632
O O12 0.325121 0.919535 0.312458
O O13 0.044296 0.149226 0.711907
O O14 0.148105 0.972817 0.203003
O O15 0.824660 0.055430 0.279703
O O16 0.000000 0.000000 0.000000
O O17 0.151044 0.116893 0.285372
#
# Coordination Sequence:
#
# PCOD9012851 Si02
#       8
#     2   2   2   2   2   2   2   2
#     4  10  21  29  44  60  95 115 162 197 223 252
#     4   9  19  28  42  61  91 116 160 197 223 261
#     4  11  18  30  43  66  87 128 161 190 226 264
#     4  10  20  32  40  66  85 124 155 200 224 257
#     4  10  17  30  44  64  86 122 163 189 223 271
#     4  10  21  33  47  69  90 117 154 194 236 275
#     4  10  20  28  51  61  91 120 164 185 227 275
#     4  10  19  31  49  66  86 123 151 188 225 278
#
# _framework density 16.718720999999999
#
# number of rings (size 3 to 8) (size 9 to 14) (size 15 to 20)
#    0.750    1.250    2.500    3.375    5.250    0.000 
#    0.000    0.000    0.000    0.000    0.000    0.000 
#    0.000    0.000    0.000    6.750    0.750    0.125 
#
# Total GULP energy -89070.774920 kJ/mol
# GULP energy per Si atom -5566.923433 kJ/mol
# Density = 1.668067 g / cm^3
# Si number density = 16.718721 Si / 1000 Ang^3
#
#
#
# Elastic Constant Matrix: (Units=GPa)
#
#
# Indices 1 2 3 4 5 6 
#
# 1 67.3162 15.9425 9.6271 13.2960 -14.1721 -4.6352
# 2 15.9425 48.2503 18.4709 14.2324 -9.3784 -9.8940
# 3 9.6271 18.4709 64.0442 17.4041 0.7331 -3.2557
# 4 13.2960 14.2324 17.4041 33.4168 -8.4390 -2.4068
# 5 -14.1721 -9.3784 0.7331 -8.4390 23.8631 6.7437
# 6 -4.6352 -9.8940 -3.2557 -2.4068 6.7437 9.9153
#
#
#
# Elastic Compliance Matrix: (Units=1/GPa)
#
#
# Indices 1 2 3 4 5 6 
#
# 1 0.018172 -0.003331 -0.001140 -0.003092 0.009014 -0.002084
# 2 -0.003331 0.031422 -0.005275 -0.007283 0.000651 0.025854
# 3 -0.001140 -0.005275 0.020174 -0.009504 -0.007815 0.003836
# 4 -0.003092 -0.007283 -0.009504 0.041822 0.013443 -0.010825
# 5 0.009014 0.000651 -0.007815 0.013443 0.063057 -0.037327
# 6 -0.002084 0.025854 0.003836 -0.010825 -0.037327 0.149697
#
#
# Mechanical properties :
#
#
# Convention : Reuss Voigt Hill
#
# Bulk Modulus (GPa) = 19.89062 29.74352 24.81707
# Shear Modulus (GPa) = 13.86594 22.47706 18.17150
#
# Velocity S-wave (km/s) = 2.88300 3.67062 3.30039
# Velocity P-wave (km/s) = 4.79638 5.98279 5.42213
#
# Compressibility (1/GPa) = 0.05027496
#
# Stress axis : x y z
#
# Youngs Moduli (GPa) = 55.02960 31.82506 49.56830
#
# Poissons Ratio (x) = 0.10602 0.05650
# Poissons Ratio (y) = 0.18332 0.26149
# Poissons Ratio (z) = 0.06272 0.16789
#
# Static dielectric constant tensor:
#      x y z
#    x 1.571650 -0.024860 0.011930 
#    y -0.024860 1.601730 0.008200 
#    z 0.011930 0.008200 1.693450 
# 
# From -- ./inp_files/96399.got.cif
#   From: 2010.05.17/outbox.cif.g08.bks.cpg/sg2_49_cif.got.tgz:96399.got - 2010.06.03 11:33:40.
