data_PCOD9012924
_publ_section_title
;
Structure prediction by ZEFSAII (Michael W. Deem and Ramdas Pophale) SiO2 
 PCOD9012924
Probable space group: P -1
;
_chemical_formula_sum "Si O2"
_cell_formula_units_Z 14
_cell_length_a 12.449170
_cell_length_b 29.079697
_cell_length_c 13.154688
_cell_angle_alpha 150.992362
_cell_angle_beta 141.116735
_cell_angle_gamma 19.003429
_cell_volume 715.681023
_symmetry_space_group_name_H-M "P -1"
_symmetry_group_IT_number 2
_symmetry_cell_setting 'triclinic'
loop_
_space_group_symop_operation_xyz
x,y,z
-x,-y,-z
loop_
_atom_site_type_symbol
_atom_site_label
_atom_site_fract_x
_atom_site_fract_y
_atom_site_fract_z
Si Si1 0.104791 0.220209 0.620855
Si Si2 0.300296 0.310291 0.281371
Si Si3 0.784893 0.200695 0.709230
Si Si4 0.694992 0.786899 0.438510
Si Si5 0.066059 0.867829 0.541333
Si Si6 0.023657 0.528429 0.860912
Si Si7 0.332153 0.077411 0.915788
O O1 0.082264 0.252957 0.548178
O O2 0.896822 0.234750 0.548223
O O3 0.500000 0.000000 0.500000
O O4 0.061452 0.338482 0.878698
O O5 0.683648 0.166165 0.309958
O O6 0.000000 0.500000 0.500000
O O7 0.219928 0.368783 0.217122
O O8 0.288676 0.203549 0.084995
O O9 0.793023 0.227677 0.650261
O O10 0.401308 0.365317 0.777855
O O11 0.972186 0.195591 0.894345
O O12 0.000000 0.000000 0.500000
O O13 0.929798 0.586433 0.258109
O O14 0.547844 0.912368 0.672069
O O15 0.346893 0.918699 0.375145
O O16 0.500000 0.000000 0.000000
#
# Coordination Sequence:
#
# PCOD9012924 Si02
#       7
#     2   2   2   2   2   2   2
#     4  10  23  43  64  88 123 174 215 251 302 378
#     4  12  24  36  58 100 132 156 204 264 315 367
#     4  11  20  38  64  96 124 163 206 259 320 374
#     4  10  22  45  65  87 124 169 213 251 308 379
#     4  10  21  41  62  89 129 166 204 251 316 370
#     4  12  22  38  68  93 125 161 212 260 314 370
#     4  11  23  39  64  92 130 162 202 261 321 367
#
# _framework density 19.561786999999999
#
# number of rings (size 3 to 8) (size 9 to 14) (size 15 to 20)
#    0.000    1.143    4.286    4.714    2.000    1.143 
#    0.000    7.143    0.000    0.000    0.000    0.000 
#    0.000    0.000    0.000    0.000    0.000    0.000 
#
# Total GULP energy -78122.625331 kJ/mol
# GULP energy per Si atom -5580.187524 kJ/mol
# Density = 1.951726 g / cm^3
# Si number density = 19.561787 Si / 1000 Ang^3
#
#
#
# Elastic Constant Matrix: (Units=GPa)
#
#
# Indices 1 2 3 4 5 6 
#
# 1 111.1259 18.2451 -3.7093 0.2822 18.4676 11.2812
# 2 18.2451 86.2856 15.4170 -20.2946 12.1750 9.9820
# 3 -3.7093 15.4170 61.0969 10.7318 19.9888 -3.6253
# 4 0.2822 -20.2946 10.7318 34.6797 -1.2721 3.7994
# 5 18.4676 12.1750 19.9888 -1.2721 40.5444 1.7251
# 6 11.2812 9.9820 -3.6253 3.7994 1.7251 26.6842
#
#
#
# Elastic Compliance Matrix: (Units=1/GPa)
#
#
# Indices 1 2 3 4 5 6 
#
# 1 0.010730 -0.002360 0.003453 -0.002483 -0.005855 -0.002452
# 2 -0.002360 0.017592 -0.007589 0.013614 0.000326 -0.008574
# 3 0.003453 -0.007589 0.025460 -0.013642 -0.012597 0.007595
# 4 -0.002483 0.013614 -0.013642 0.042601 0.005630 -0.012326
# 5 -0.005855 0.000326 -0.012597 0.005630 0.033720 -0.002340
# 6 -0.002452 -0.008574 0.007595 -0.012326 -0.002340 0.044658
#
#
# Mechanical properties :
#
#
# Convention : Reuss Voigt Hill
#
# Bulk Modulus (GPa) = 24.51559 35.37934 29.94746
# Shear Modulus (GPa) = 24.83237 35.61870 30.22554
#
# Velocity S-wave (km/s) = 3.56677 4.27175 3.93508
# Velocity P-wave (km/s) = 5.43342 6.51580 5.99907
#
# Compressibility (1/GPa) = 0.04079037
#
# Stress axis : x y z
#
# Youngs Moduli (GPa) = 93.19906 56.84284 39.27661
#
# Poissons Ratio (x) = 0.13415 -0.13562
# Poissons Ratio (y) = 0.21995 0.29807
# Poissons Ratio (z) = -0.32181 0.43138
#
# Static dielectric constant tensor:
#      x y z
#    x 1.737640 0.023820 -0.002540 
#    y 0.023820 1.717340 -0.029640 
#    z -0.002540 -0.029640 1.637420 
# 
# From -- ./inp_files/203322.got.cif
#   From: 2010.05.17/outbox.cif.g08.bks.cpg/sg2_102_cif.got.tgz:203322.got - 2010.06.03 11:33:40.
