data_PCOD9012458
_publ_section_title
;
Structure prediction by ZEFSAII (Michael W. Deem and Ramdas Pophale) SiO2 
 PCOD9012458
Probable space group: P -1
;
_chemical_formula_sum "Si O2"
_cell_formula_units_Z 16
_cell_length_a 8.054721
_cell_length_b 9.238131
_cell_length_c 19.201580
_cell_angle_alpha 140.285108
_cell_angle_beta 41.670278
_cell_angle_gamma 127.346408
_cell_volume 605.245809
_symmetry_space_group_name_H-M "P -1"
_symmetry_group_IT_number 2
_symmetry_cell_setting 'triclinic'
loop_
_space_group_symop_operation_xyz
x,y,z
-x,-y,-z
loop_
_atom_site_type_symbol
_atom_site_label
_atom_site_fract_x
_atom_site_fract_y
_atom_site_fract_z
Si Si1 0.136350 0.404312 0.543233
Si Si2 0.794120 0.869156 0.131979
Si Si3 0.521234 0.739348 0.982314
Si Si4 0.351820 0.677986 0.709744
Si Si5 0.748352 0.127658 0.379176
Si Si6 0.320109 0.726062 0.889692
Si Si7 0.740425 0.340352 0.821673
Si Si8 0.183271 0.028475 0.544153
O O1 0.226797 0.520866 0.630150
O O2 0.362383 0.280493 0.390886
O O3 0.109962 0.625243 0.584983
O O4 0.909899 0.214628 0.549757
O O5 0.749117 0.602719 0.891137
O O6 0.520236 0.747446 0.165667
O O7 0.779275 0.086850 0.167114
O O8 0.838828 0.967942 0.231588
O O9 0.315003 0.698403 0.093038
O O10 0.583760 0.009332 0.054952
O O11 0.442209 0.656084 0.898313
O O12 0.364090 0.596296 0.755533
O O13 0.783498 0.030150 0.407410
O O14 0.446211 0.127863 0.466427
O O15 0.023206 0.722755 0.990475
O O16 0.965695 0.198803 0.675962
#
# Coordination Sequence:
#
# PCOD9012458 Si02
#       8
#     2   2   2   2   2   2   2   2
#     4  10  21  44  72 106 145 195 243 297 360 432
#     4  11  22  42  67  99 148 184 233 299 360 422
#     4  10  24  43  69 110 137 193 243 290 374 430
#     4  10  21  40  70 108 139 190 245 290 360 431
#     4  10  25  43  70 111 141 190 246 296 368 431
#     4  11  22  44  73 102 146 186 242 306 349 434
#     4  11  23  45  69 103 152 186 235 297 370 432
#     4  11  22  47  73 102 151 189 240 309 358 432
#
# _framework density 26.435541000000001
#
# number of rings (size 3 to 8) (size 9 to 14) (size 15 to 20)
#    0.000    1.500    2.500    1.500    0.000    3.000 
#   11.250    0.000    0.000    0.750    0.000    0.000 
#    0.000    0.000    0.000    0.000    0.000    0.000 
#
# Total GULP energy -89720.738515 kJ/mol
# GULP energy per Si atom -5607.546157 kJ/mol
# Density = 2.637537 g / cm^3
# Si number density = 26.435541 Si / 1000 Ang^3
#
#
#
# Elastic Constant Matrix: (Units=GPa)
#
#
# Indices 1 2 3 4 5 6 
#
# 1 97.5725 34.6094 36.6438 -15.6178 23.2792 -19.4920
# 2 34.6094 108.6454 25.2099 2.5665 -4.5502 -17.7406
# 3 36.6438 25.2099 94.3161 -18.5647 23.0064 -1.0900
# 4 -15.6178 2.5665 -18.5647 37.8803 -7.4693 7.8117
# 5 23.2792 -4.5502 23.0064 -7.4693 52.6243 -11.8252
# 6 -19.4920 -17.7406 -1.0900 7.8117 -11.8252 42.7995
#
#
#
# Elastic Compliance Matrix: (Units=1/GPa)
#
#
# Indices 1 2 3 4 5 6 
#
# 1 0.014994 -0.003792 -0.003031 0.003396 -0.004402 0.003344
# 2 -0.003792 0.012568 -0.003956 -0.004503 0.005116 0.005617
# 3 -0.003031 -0.003956 0.015558 0.006575 -0.006108 -0.005512
# 4 0.003396 -0.004503 0.006575 0.032346 -0.001638 -0.006509
# 5 -0.004402 0.005116 -0.006108 -0.001638 0.025470 0.007296
# 6 0.003344 0.005617 -0.005512 -0.006509 0.007296 0.030280
#
#
# Mechanical properties :
#
#
# Convention : Reuss Voigt Hill
#
# Bulk Modulus (GPa) = 46.37555 54.82891 50.60223
# Shear Modulus (GPa) = 31.25794 40.26555 35.76174
#
# Velocity S-wave (km/s) = 3.44237 3.90700 3.68202
# Velocity P-wave (km/s) = 5.77761 6.41393 6.10407
#
# Compressibility (1/GPa) = 0.02156308
#
# Stress axis : x y z
#
# Youngs Moduli (GPa) = 66.69426 79.56813 64.27520
#
# Poissons Ratio (x) = 0.30169 0.19483
# Poissons Ratio (y) = 0.25288 0.25425
# Poissons Ratio (z) = 0.20216 0.31474
#
# Static dielectric constant tensor:
#      x y z
#    x 2.053710 0.006940 0.007770 
#    y 0.006940 2.137110 0.049930 
#    z 0.007770 0.049930 2.092240 
# 
# From -- ./inp_files/588464.got.cif
#   From: 2010.05.17/outbox.cif.g08.bks.cpg/sg2_295_cif.got.tgz:588464.got - 2010.06.03 11:33:40.
