data_PCOD9012600
_publ_section_title
;
Structure prediction by ZEFSAII (Michael W. Deem and Ramdas Pophale) SiO2 
 PCOD9012600
Probable space group: P -1
;
_chemical_formula_sum "Si O2"
_cell_formula_units_Z 14
_cell_length_a 9.663568
_cell_length_b 9.518475
_cell_length_c 8.932542
_cell_angle_alpha 68.361334
_cell_angle_beta 107.773083
_cell_angle_gamma 113.404476
_cell_volume 688.649871
_symmetry_space_group_name_H-M "P -1"
_symmetry_group_IT_number 2
_symmetry_cell_setting 'triclinic'
loop_
_space_group_symop_operation_xyz
x,y,z
-x,-y,-z
loop_
_atom_site_type_symbol
_atom_site_label
_atom_site_fract_x
_atom_site_fract_y
_atom_site_fract_z
Si Si1 0.727907 0.574166 0.132962
Si Si2 0.561417 0.891217 0.450126
Si Si3 0.893169 0.107860 0.418215
Si Si4 0.400921 0.404948 0.236952
Si Si5 0.027208 0.668572 0.362276
Si Si6 0.697954 0.312752 0.775125
Si Si7 0.128077 0.646212 0.902253
O O1 0.573432 0.511384 0.203053
O O2 0.785547 0.426341 0.163694
O O3 0.871528 0.682304 0.232370
O O4 0.690199 0.637401 0.935004
O O5 0.593903 0.749710 0.611849
O O6 0.440280 0.806780 0.314920
O O7 0.500000 0.000000 0.500000
O O8 0.717397 0.001460 0.384042
O O9 0.907811 0.197462 0.545613
O O10 0.943610 0.237011 0.251865
O O11 0.000000 0.000000 0.500000
O O12 0.333325 0.519760 0.268913
O O13 0.151458 0.671180 0.277485
O O14 0.000000 0.500000 0.500000
O O15 0.742074 0.263614 0.971668
O O16 0.000000 0.500000 0.000000
#
# Coordination Sequence:
#
# PCOD9012600 Si02
#       7
#     2   2   2   2   2   2   2
#     4  10  21  40  71  99 128 169 236 275 314 391
#     4  12  25  45  62  94 146 171 212 279 348 391
#     4  12  29  43  66 104 139 174 218 282 343 391
#     4  10  24  41  69 101 130 175 230 274 326 398
#     4  12  22  42  71  97 132 176 228 269 330 401
#     4  11  24  42  72  96 124 186 227 268 327 402
#     4  11  22  45  72  97 133 176 229 272 329 402
#
# _framework density 20.329635
#
# number of rings (size 3 to 8) (size 9 to 14) (size 15 to 20)
#    0.000    0.857    4.286    2.143    8.000    0.571 
#    2.571    1.429    0.000    0.000    0.000    0.000 
#    0.000    0.000    0.000    0.000    0.000    0.000 
#
# Total GULP energy -78264.535678 kJ/mol
# GULP energy per Si atom -5590.323977 kJ/mol
# Density = 2.028336 g / cm^3
# Si number density = 20.329635 Si / 1000 Ang^3
#
#
#
# Elastic Constant Matrix: (Units=GPa)
#
#
# Indices 1 2 3 4 5 6 
#
# 1 79.9375 23.1899 28.9394 -12.3826 13.1894 1.9222
# 2 23.1899 72.5111 59.9471 7.3066 7.7193 -1.1753
# 3 28.9394 59.9471 119.2636 6.0994 21.5119 6.6239
# 4 -12.3826 7.3066 6.0994 32.4069 6.4411 12.2606
# 5 13.1894 7.7193 21.5119 6.4411 30.2617 6.7980
# 6 1.9222 -1.1753 6.6239 12.2606 6.7980 46.5226
#
#
#
# Elastic Compliance Matrix: (Units=1/GPa)
#
#
# Indices 1 2 3 4 5 6 
#
# 1 0.017091 -0.005293 -0.000551 0.010184 -0.007342 -0.002373
# 2 -0.005293 0.026326 -0.012744 -0.008183 0.005482 0.004054
# 3 -0.000551 -0.012744 0.016402 0.001933 -0.008141 -0.001954
# 4 0.010184 -0.008183 0.001933 0.042273 -0.010358 -0.010530
# 5 -0.007342 0.005482 -0.008141 -0.010358 0.043286 -0.001994
# 6 -0.002373 0.004054 -0.001954 -0.010530 -0.001994 0.025040
#
#
# Mechanical properties :
#
#
# Convention : Reuss Voigt Hill
#
# Bulk Modulus (GPa) = 44.16417 55.09612 49.63015
# Shear Modulus (GPa) = 23.24044 32.48062 27.86053
#
# Velocity S-wave (km/s) = 3.38476 4.00146 3.70596
# Velocity P-wave (km/s) = 6.08660 6.96485 6.54048
#
# Compressibility (1/GPa) = 0.02264279
#
# Stress axis : x y z
#
# Youngs Moduli (GPa) = 58.51054 37.98525 60.96743
#
# Poissons Ratio (x) = 0.20106 0.03362
# Poissons Ratio (y) = 0.30970 0.77695
# Poissons Ratio (z) = 0.03226 0.48407
#
# Static dielectric constant tensor:
#      x y z
#    x 1.709010 0.019000 0.019680 
#    y 0.019000 1.716060 0.033550 
#    z 0.019680 0.033550 1.764170 
# 
# From -- ./inp_files/157700.got.cif
#   From: 2010.05.17/outbox.cif.g08.bks.cpg/sg2_79_cif.got.tgz:157700.got - 2010.06.03 11:33:40.
