data_PCOD9012298
_publ_section_title
;
Structure prediction by ZEFSAII (Michael W. Deem and Ramdas Pophale) SiO2 
 PCOD9012298
Probable space group: P -1
;
_chemical_formula_sum "Si O2"
_cell_formula_units_Z 15
_cell_length_a 11.255938
_cell_length_b 9.155421
_cell_length_c 8.568259
_cell_angle_alpha 98.453298
_cell_angle_beta 135.378671
_cell_angle_gamma 67.102745
_cell_volume 559.715614
_symmetry_space_group_name_H-M "P -1"
_symmetry_group_IT_number 2
_symmetry_cell_setting 'triclinic'
loop_
_space_group_symop_operation_xyz
x,y,z
-x,-y,-z
loop_
_atom_site_type_symbol
_atom_site_label
_atom_site_fract_x
_atom_site_fract_y
_atom_site_fract_z
Si Si1 0.670055 0.908318 0.804502
Si Si2 0.480505 0.727191 0.931819
Si Si3 0.411396 0.594931 0.155686
Si Si4 0.883145 0.694740 0.432136
Si Si5 0.050255 0.749521 0.306462
Si Si6 0.500000 0.000000 0.000000
Si Si7 0.775043 0.623777 0.630693
Si Si8 0.201637 0.873540 0.220603
O O1 0.702201 0.738706 0.727420
O O2 0.529957 0.974170 0.825522
O O3 0.661608 0.041963 0.687734
O O4 0.863865 0.861831 0.066758
O O5 0.391685 0.657290 0.970162
O O6 0.672555 0.755598 0.166008
O O7 0.556628 0.590529 0.852257
O O8 0.353880 0.913405 0.835934
O O9 0.600573 0.605385 0.385302
O O10 0.256020 0.712527 0.140625
O O11 0.854238 0.714181 0.593169
O O12 0.000000 0.500000 0.500000
O O13 0.007576 0.755417 0.451180
O O14 0.091312 0.565574 0.258443
O O15 0.199484 0.809077 0.383489
O O16 0.000000 0.000000 0.000000
#
# Coordination Sequence:
#
# PCOD9012298 Si02
#       8
#     2   2   2   2   2   1   2   2
#     4  11  23  42  66  96 133 169 219 270 327 389
#     4  10  21  40  69  91 125 175 212 272 314 394
#     4  10  22  43  64  92 131 169 220 259 330 383
#     4   9  19  39  65  97 127 162 215 268 322 384
#     4  10  21  41  67  91 130 173 217 262 328 395
#     4  12  22  40  70  96 124 174 220 262 332 386
#     4  10  23  41  69  99 127 168 219 279 319 384
#     4  10  23  40  60  93 133 171 208 266 322 387
#
# _framework density 26.799323999999999
#
# number of rings (size 3 to 8) (size 9 to 14) (size 15 to 20)
#    0.000    1.867    2.667    0.400    1.867    5.333 
#    0.000    0.667    0.000    0.000    0.000    0.000 
#    0.000    0.000    0.000    0.000    0.000    0.000 
#
# Total GULP energy -83589.244849 kJ/mol
# GULP energy per Si atom -5572.616323 kJ/mol
# Density = 2.673833 g / cm^3
# Si number density = 26.799324 Si / 1000 Ang^3
#
#
#
# Elastic Constant Matrix: (Units=GPa)
#
#
# Indices 1 2 3 4 5 6 
#
# 1 164.5429 64.9112 42.8298 -1.5839 -56.6726 4.4670
# 2 64.9112 149.2079 24.4589 21.4289 -23.3644 -15.7567
# 3 42.8298 24.4589 37.0647 3.9868 -4.9014 -1.3178
# 4 -1.5839 21.4289 3.9868 45.0252 -4.6755 -5.3003
# 5 -56.6726 -23.3644 -4.9014 -4.6755 40.8156 -11.3347
# 6 4.4670 -15.7567 -1.3178 -5.3003 -11.3347 54.8481
#
#
#
# Elastic Compliance Matrix: (Units=1/GPa)
#
#
# Indices 1 2 3 4 5 6 
#
# 1 0.022743 -0.002421 -0.021440 0.007355 0.029501 0.003744
# 2 -0.002421 0.009343 -0.002592 -0.003751 0.002046 0.002879
# 3 -0.021440 -0.002592 0.050512 -0.007297 -0.027163 -0.004103
# 4 0.007355 -0.003751 -0.007297 0.026397 0.011040 0.002981
# 5 0.029501 0.002046 -0.027163 0.011040 0.068159 0.012685
# 6 0.003744 0.002879 -0.004103 0.002981 0.012685 0.021565
#
#
# Mechanical properties :
#
#
# Convention : Reuss Voigt Hill
#
# Bulk Modulus (GPa) = 33.67785 68.35726 51.01755
# Shear Modulus (GPa) = 19.11881 42.71215 30.91548
#
# Velocity S-wave (km/s) = 2.67386 3.99654 3.40014
# Velocity P-wave (km/s) = 4.70390 6.84536 5.87306
#
# Compressibility (1/GPa) = 0.02969311
#
# Stress axis : x y z
#
# Youngs Moduli (GPa) = 43.96916 107.02973 19.79734
#
# Poissons Ratio (x) = 0.25912 0.42445
# Poissons Ratio (y) = 0.10645 0.05131
# Poissons Ratio (z) = 0.94270 0.27739
#
# Static dielectric constant tensor:
#      x y z
#    x 2.113290 0.051170 -0.028310 
#    y 0.051170 1.603660 0.060520 
#    z -0.028310 0.060520 2.158750 
# 
# From -- ./inp_files/239926.got.cif
#   From: 2010.05.17/outbox.cif.g08.bks.cpg/sg2_120_cif.got.tgz:239926.got - 2010.06.03 11:33:40.
