data_PCOD9012789
_publ_section_title
;
Structure prediction by ZEFSAII (Michael W. Deem and Ramdas Pophale) SiO2 
 PCOD9012789
Probable space group: P -1
;
_chemical_formula_sum "Si O2"
_cell_formula_units_Z 14
_cell_length_a 9.356311
_cell_length_b 12.020373
_cell_length_c 15.046012
_cell_angle_alpha 151.263550
_cell_angle_beta 112.895128
_cell_angle_gamma 86.293051
_cell_volume 585.512181
_symmetry_space_group_name_H-M "P -1"
_symmetry_group_IT_number 2
_symmetry_cell_setting 'triclinic'
loop_
_space_group_symop_operation_xyz
x,y,z
-x,-y,-z
loop_
_atom_site_type_symbol
_atom_site_label
_atom_site_fract_x
_atom_site_fract_y
_atom_site_fract_z
Si Si1 0.193818 0.545615 0.115282
Si Si2 0.664265 0.725136 0.942631
Si Si3 0.158212 0.622172 0.760706
Si Si4 0.727947 0.323411 0.371688
Si Si5 0.240186 0.204682 0.190048
Si Si6 0.650730 0.529538 0.181814
Si Si7 0.573269 0.895818 0.321212
O O1 0.175530 0.263037 0.948293
O O2 0.365698 0.715551 0.200320
O O3 0.288264 0.766388 0.378171
O O4 0.000000 0.500000 0.000000
O O5 0.708011 0.709582 0.840633
O O6 0.458487 0.456743 0.750250
O O7 0.645273 0.986601 0.123292
O O8 0.243573 0.608151 0.678316
O O9 0.173261 0.457605 0.728811
O O10 0.936768 0.477954 0.579914
O O11 0.273554 0.965332 0.052438
O O12 0.661232 0.504122 0.523135
O O13 0.000000 0.000000 0.000000
O O14 0.688813 0.771760 0.293367
O O15 0.496120 0.215593 0.873566
#
# Coordination Sequence:
#
# PCOD9012789 Si02
#       7
#     2   2   2   2   2   2   2
#     4  10  22  41  66  95 126 164 214 261 314 378
#     4  10  22  37  60  91 121 159 211 252 307 384
#     4   9  19  37  59  86 118 164 201 248 323 364
#     4   9  19  36  58  88 122 150 210 265 288 381
#     4   9  19  37  56  87 124 154 201 260 305 367
#     4  10  21  41  61  84 129 168 200 261 325 365
#     4   9  22  44  60  93 134 160 208 271 307 373
#
# _framework density 23.910689999999999
#
# number of rings (size 3 to 8) (size 9 to 14) (size 15 to 20)
#    0.000    2.571    0.000    0.857    4.000    4.571 
#    7.714    3.571    0.000    0.000    0.000    0.000 
#    0.000    0.000    0.000    0.000    0.000    0.000 
#
# Total GULP energy -78115.070711 kJ/mol
# GULP energy per Si atom -5579.647908 kJ/mol
# Density = 2.385627 g / cm^3
# Si number density = 23.910690 Si / 1000 Ang^3
#
#
#
# Elastic Constant Matrix: (Units=GPa)
#
#
# Indices 1 2 3 4 5 6 
#
# 1 114.6972 104.1311 132.5071 0.2814 -47.4050 4.9490
# 2 104.1311 273.4582 251.2514 7.0109 -59.1359 33.1286
# 3 132.5071 251.2514 414.0324 32.8358 -87.1221 71.4050
# 4 0.2814 7.0109 32.8358 14.6264 -10.8109 12.0971
# 5 -47.4050 -59.1359 -87.1221 -10.8109 57.5983 -25.7043
# 6 4.9490 33.1286 71.4050 12.0971 -25.7043 71.8067
#
#
#
# Elastic Compliance Matrix: (Units=1/GPa)
#
#
# Indices 1 2 3 4 5 6 
#
# 1 0.022762 -0.001012 -0.006288 0.019257 0.015053 0.007296
# 2 -0.001012 0.009693 -0.005996 0.009905 0.002214 0.000684
# 3 -0.006288 -0.005996 0.009799 -0.016585 -0.001543 -0.004303
# 4 0.019257 0.009905 -0.016585 0.118185 0.022561 -0.001238
# 5 0.015053 0.002214 -0.001543 0.022561 0.038077 0.009305
# 6 0.007296 0.000684 -0.004303 -0.001238 0.009305 0.020926
#
#
# Mechanical properties :
#
#
# Convention : Reuss Voigt Hill
#
# Bulk Modulus (GPa) = 63.85181 197.55191 130.70186
# Shear Modulus (GPa) = 19.89998 49.75947 34.82973
#
# Velocity S-wave (km/s) = 2.88803 4.56681 3.82076
# Velocity P-wave (km/s) = 6.15493 10.51702 8.61658
#
# Compressibility (1/GPa) = 0.01566126
#
# Stress axis : x y z
#
# Youngs Moduli (GPa) = 43.93326 103.16408 102.04869
#
# Poissons Ratio (x) = 0.10441 0.64173
# Poissons Ratio (y) = 0.04446 0.61188
# Poissons Ratio (z) = 0.27627 0.61857
#
# Static dielectric constant tensor:
#      x y z
#    x 2.002840 -0.008210 0.005080 
#    y -0.008210 1.916610 0.067770 
#    z 0.005080 0.067770 1.985630 
# 
# From -- ./inp_files/428399.got.cif
#   From: 2010.05.17/outbox.cif.g08.bks.cpg/sg2_215_cif.got.tgz:428399.got - 2010.06.03 11:33:40.
