data_PCOD9012984
_publ_section_title
;
Structure prediction by ZEFSAII (Michael W. Deem and Ramdas Pophale) SiO2 
 PCOD9012984
Probable space group: P -1
;
_chemical_formula_sum "Si O2"
_cell_formula_units_Z 14
_cell_length_a 11.582217
_cell_length_b 10.904944
_cell_length_c 14.180025
_cell_angle_alpha 148.191630
_cell_angle_beta 51.641730
_cell_angle_gamma 141.137133
_cell_volume 587.717396
_symmetry_space_group_name_H-M "P -1"
_symmetry_group_IT_number 2
_symmetry_cell_setting 'triclinic'
loop_
_space_group_symop_operation_xyz
x,y,z
-x,-y,-z
loop_
_atom_site_type_symbol
_atom_site_label
_atom_site_fract_x
_atom_site_fract_y
_atom_site_fract_z
Si Si1 0.755643 0.732155 0.357233
Si Si2 0.624841 0.669244 0.642510
Si Si3 0.185171 0.367175 0.935705
Si Si4 0.573888 0.649783 0.957207
Si Si5 0.101073 0.792112 0.270275
Si Si6 0.858209 0.106622 0.228040
Si Si7 0.258388 0.559057 0.400947
O O1 0.549947 0.431538 0.269554
O O2 0.833843 0.800362 0.257986
O O3 0.899014 0.712654 0.330548
O O4 0.777348 0.009519 0.571582
O O5 0.500000 0.500000 0.500000
O O6 0.727130 0.570878 0.591289
O O7 0.781397 0.993774 0.737659
O O8 0.402649 0.642170 0.006537
O O9 0.138255 0.150179 0.900981
O O10 0.074918 0.496254 0.078715
O O11 0.607284 0.459090 0.748366
O O12 0.500000 0.500000 0.000000
O O13 0.760986 0.977400 0.091995
O O14 0.727378 0.160152 0.388038
O O15 0.067811 0.385052 0.322507
#
# Coordination Sequence:
#
# PCOD9012984 Si02
#       7
#     2   2   2   2   2   2   2
#     4  10  21  41  62  93 129 178 216 264 337 382
#     4  10  22  41  67  97 130 176 223 268 331 401
#     4  11  22  40  63  96 128 169 215 273 330 394
#     4  10  23  40  63  98 128 173 222 267 337 399
#     4  10  23  40  63  95 134 169 224 270 320 406
#     4  10  25  41  69  97 129 177 222 279 342 392
#     4  11  22  46  66  94 139 171 223 282 329 404
#
# _framework density 23.820972999999999
#
# number of rings (size 3 to 8) (size 9 to 14) (size 15 to 20)
#    0.000    1.714    1.429    1.714    4.000    5.143 
#    2.571    7.143    0.000    0.000    0.000    0.000 
#    0.000    0.000    0.000    0.000    0.000    0.000 
#
# Total GULP energy -77953.109518 kJ/mol
# GULP energy per Si atom -5568.079251 kJ/mol
# Density = 2.376676 g / cm^3
# Si number density = 23.820973 Si / 1000 Ang^3
#
#
#
# Elastic Constant Matrix: (Units=GPa)
#
#
# Indices 1 2 3 4 5 6 
#
# 1 52.4623 -4.7409 40.1089 1.6753 0.2727 1.8952
# 2 -4.7409 25.3078 71.2710 0.2155 -15.5536 -1.4219
# 3 40.1089 71.2710 -113.4623 1.2386 19.2554 64.0008
# 4 1.6753 0.2155 1.2386 29.1902 -0.9599 -1.5380
# 5 0.2727 -15.5536 19.2554 -0.9599 29.7893 -14.6563
# 6 1.8952 -1.4219 64.0008 -1.5380 -14.6563 11.3157
#
#
#
# Elastic Compliance Matrix: (Units=1/GPa)
#
#
# Indices 1 2 3 4 5 6 
#
# 1 0.019532 -0.000173 -0.000029 -0.001847 -0.005440 -0.010426
# 2 -0.000173 0.026138 0.004382 -0.001481 0.000294 -0.021290
# 3 -0.000029 0.004382 0.000064 0.000652 0.006631 0.008870
# 4 -0.001847 -0.001481 0.000652 0.034544 0.001355 0.002886
# 5 -0.005440 0.000294 0.006631 0.001355 0.032070 0.005163
# 6 -0.010426 -0.021290 0.008870 0.002886 0.005163 0.044358
#
#
# Mechanical properties :
#
#
# Convention : Reuss Voigt Hill
#
# Bulk Modulus (GPa) = 18.48639 19.73174 19.10907
# Shear Modulus (GPa) = 30.05212 4.57030 17.31121
#
# Velocity S-wave (km/s) = 3.55573 1.38664 2.69870
# Velocity P-wave (km/s) = 4.96337 3.29621 4.21308
#
# Compressibility (1/GPa) = 0.05409385
#
# Stress axis : x y z
#
# Youngs Moduli (GPa) = 51.19902 38.25819 15559.03121
#
# Poissons Ratio (x) = 0.00662 0.44905
# Poissons Ratio (y) = 0.00886 -68.17686
# Poissons Ratio (z) = 0.00148 -0.16764
#
# Static dielectric constant tensor:
#      x y z
#    x 2.093710 0.054710 0.071320 
#    y 0.054710 1.996680 -0.007630 
#    z 0.071320 -0.007630 1.948000 
# 
# From -- ./inp_files/305516.got.cif
#   From: 2010.05.17/outbox.cif.g08.bks.cpg/sg2_153_cif.got.tgz:305516.got - 2010.06.03 11:33:40.
