data_PCOD9012754
_publ_section_title
;
Structure prediction by ZEFSAII (Michael W. Deem and Ramdas Pophale) SiO2 
 PCOD9012754
Probable space group: P -1
;
_chemical_formula_sum "Si O2"
_cell_formula_units_Z 14
_cell_length_a 6.481974
_cell_length_b 9.820433
_cell_length_c 24.934699
_cell_angle_alpha 32.197514
_cell_angle_beta 52.406824
_cell_angle_gamma 45.628730
_cell_volume 603.859816
_symmetry_space_group_name_H-M "P -1"
_symmetry_group_IT_number 2
_symmetry_cell_setting 'triclinic'
loop_
_space_group_symop_operation_xyz
x,y,z
-x,-y,-z
loop_
_atom_site_type_symbol
_atom_site_label
_atom_site_fract_x
_atom_site_fract_y
_atom_site_fract_z
Si Si1 0.646795 0.292227 0.651716
Si Si2 0.180473 0.186364 0.907931
Si Si3 0.045800 0.060112 0.573210
Si Si4 0.676506 0.683256 0.862687
Si Si5 0.324056 0.396736 0.352838
Si Si6 0.968760 0.453673 0.297446
Si Si7 0.342150 0.356748 0.997786
O O1 0.738861 0.369524 0.668720
O O2 0.307606 0.498702 0.637550
O O3 0.666072 0.979543 0.749700
O O4 0.842840 0.290248 0.571293
O O5 0.144613 0.339345 0.804807
O O6 0.007123 0.446369 0.887949
O O7 0.499235 0.954812 0.949385
O O8 0.000000 0.000000 0.000000
O O9 0.336254 0.812451 0.635957
O O10 0.897544 0.873627 0.632974
O O11 0.171833 0.203384 0.462553
O O12 0.487269 0.572957 0.892100
O O13 0.571086 0.717885 0.928685
O O14 0.188867 0.520120 0.276161
O O15 0.000000 0.500000 0.000000
#
# Coordination Sequence:
#
# PCOD9012754 Si02
#       7
#     2   2   2   2   2   2   2
#     4  11  22  40  63  94 132 164 208 264 320 379
#     4  10  21  42  63  89 130 166 206 264 314 371
#     4  10  22  44  64  93 132 167 210 268 318 374
#     4  10  21  41  60  89 127 164 205 264 315 375
#     4  10  24  41  66  95 128 168 215 262 318 383
#     4  11  22  41  65  93 126 169 217 262 314 378
#     4  10  22  41  64  90 122 164 213 263 317 372
#
# _framework density 23.184190999999998
#
# number of rings (size 3 to 8) (size 9 to 14) (size 15 to 20)
#    0.000    1.714    2.857    0.857    0.000    3.429 
#    5.143    0.000    0.000    0.000    0.000    0.000 
#    0.000    0.000    0.000    0.000    0.000    0.000 
#
# Total GULP energy -78144.847509 kJ/mol
# GULP energy per Si atom -5581.774822 kJ/mol
# Density = 2.313142 g / cm^3
# Si number density = 23.184191 Si / 1000 Ang^3
#
#
#
# Elastic Constant Matrix: (Units=GPa)
#
#
# Indices 1 2 3 4 5 6 
#
# 1 69.0421 19.5353 15.8143 -13.8397 -3.7745 3.2897
# 2 19.5353 127.0152 1.9580 -6.6274 2.3203 1.2534
# 3 15.8143 1.9580 59.1133 -9.9165 -11.4029 -2.5790
# 4 -13.8397 -6.6274 -9.9165 33.8646 6.9741 -7.0194
# 5 -3.7745 2.3203 -11.4029 6.9741 15.6744 2.1120
# 6 3.2897 1.2534 -2.5790 -7.0194 2.1120 23.8749
#
#
#
# Elastic Compliance Matrix: (Units=1/GPa)
#
#
# Indices 1 2 3 4 5 6 
#
# 1 0.017073 -0.002271 -0.003741 0.005329 -0.000507 -0.001026
# 2 -0.002271 0.008327 0.000122 0.001321 -0.002343 0.000484
# 3 -0.003741 0.000122 0.020913 0.002452 0.012888 0.002349
# 4 0.005329 0.001321 0.002452 0.038481 -0.015891 0.012181
# 5 -0.000507 -0.002343 0.012888 -0.015891 0.081861 -0.010329
# 6 -0.001026 0.000484 0.002349 0.012181 -0.010329 0.046750
#
#
# Mechanical properties :
#
#
# Convention : Reuss Voigt Hill
#
# Bulk Modulus (GPa) = 28.95619 36.64287 32.79953
# Shear Modulus (GPa) = 21.12420 29.20698 25.16559
#
# Velocity S-wave (km/s) = 3.02180 3.55319 3.29821
# Velocity P-wave (km/s) = 4.96908 5.71603 5.35559
#
# Compressibility (1/GPa) = 0.03453493
#
# Stress axis : x y z
#
# Youngs Moduli (GPa) = 58.57322 120.08611 47.81671
#
# Poissons Ratio (x) = 0.27268 0.17887
# Poissons Ratio (y) = 0.13300 -0.00585
# Poissons Ratio (z) = 0.21910 -0.01468
#
# Static dielectric constant tensor:
#      x y z
#    x 1.922790 -0.004650 -0.018920 
#    y -0.004650 1.910290 0.039530 
#    z -0.018920 0.039530 1.892490 
# 
# From -- ./inp_files/46535.got.cif
#   From: 2010.05.17/outbox.cif.g08.bks.cpg/sg2_24_cif.got.tgz:46535.got - 2010.06.03 11:33:40.
