data_PCOD9012642
_publ_section_title
;
Structure prediction by ZEFSAII (Michael W. Deem and Ramdas Pophale) SiO2 
 PCOD9012642
Probable space group: P -1
;
_chemical_formula_sum "Si O2"
_cell_formula_units_Z 14
_cell_length_a 21.953081
_cell_length_b 6.148792
_cell_length_c 12.403122
_cell_angle_alpha 54.685911
_cell_angle_beta 22.078655
_cell_angle_gamma 53.439327
_cell_volume 503.590857
_symmetry_space_group_name_H-M "P -1"
_symmetry_group_IT_number 2
_symmetry_cell_setting 'triclinic'
loop_
_space_group_symop_operation_xyz
x,y,z
-x,-y,-z
loop_
_atom_site_type_symbol
_atom_site_label
_atom_site_fract_x
_atom_site_fract_y
_atom_site_fract_z
Si Si1 0.462313 0.198461 0.341344
Si Si2 0.784519 0.664174 0.594679
Si Si3 0.887600 0.161350 0.231627
Si Si4 0.787182 0.799748 0.890345
Si Si5 0.000000 0.500000 0.500000
Si Si6 0.920649 0.684993 0.928531
Si Si7 0.500000 0.500000 0.000000
Si Si8 0.625703 0.314001 0.265198
O O1 0.540400 0.306787 0.290615
O O2 0.354762 0.981474 0.626018
O O3 0.385122 0.378387 0.315487
O O4 0.619914 0.999915 0.078757
O O5 0.617883 0.558933 0.886414
O O6 0.866017 0.610857 0.591946
O O7 0.923564 0.495782 0.337092
O O8 0.752659 0.985311 0.530708
O O9 0.000978 0.165492 0.149112
O O10 0.828078 0.464346 0.199519
O O11 0.000000 0.000000 0.000000
O O12 0.809310 0.823110 0.973947
O O13 0.948423 0.808123 0.556504
O O14 0.781318 0.474806 0.963220
O O15 0.500000 0.500000 0.500000
#
# Coordination Sequence:
#
# PCOD9012642 Si02
#       8
#     2   2   2   2   1   2   1   2
#     4  10  23  43  67 100 143 189 240 293 357 434
#     4  10  23  42  64  94 138 182 226 282 345 422
#     4   9  19  39  61  91 127 165 219 288 347 399
#     4  10  21  40  72  99 133 179 239 297 350 420
#     4  10  22  44  70 100 136 188 242 282 354 436
#     4   9  20  39  64  98 122 167 235 287 345 408
#     4  12  26  44  66 104 150 188 232 288 372 432
#     4   9  20  44  67  98 133 187 246 291 350 427
#
# _framework density 27.800343999999999
#
# number of rings (size 3 to 8) (size 9 to 14) (size 15 to 20)
#    0.000    2.286    0.000    0.857    2.000    5.714 
#   20.571   13.571    0.000    0.000    0.000    0.000 
#    0.000    0.000    0.000    0.000    0.000    0.000 
#
# Total GULP energy -78005.393849 kJ/mol
# GULP energy per Si atom -5571.813846 kJ/mol
# Density = 2.773707 g / cm^3
# Si number density = 27.800344 Si / 1000 Ang^3
#
#
#
# Elastic Constant Matrix: (Units=GPa)
#
#
# Indices 1 2 3 4 5 6 
#
# 1 174.9871 38.9857 37.1108 -19.5778 22.9740 17.8421
# 2 38.9857 70.9340 32.8164 -17.9366 0.6934 21.1294
# 3 37.1108 32.8164 50.4139 -16.9160 10.9738 -5.0374
# 4 -19.5778 -17.9366 -16.9160 54.1296 15.1482 1.9124
# 5 22.9740 0.6934 10.9738 15.1482 63.9923 5.2980
# 6 17.8421 21.1294 -5.0374 1.9124 5.2980 35.1807
#
#
#
# Elastic Compliance Matrix: (Units=1/GPa)
#
#
# Indices 1 2 3 4 5 6 
#
# 1 0.007715 -0.000185 -0.004906 0.001914 -0.002023 -0.004304
# 2 -0.000185 0.033238 -0.024104 0.002822 0.005180 -0.024254
# 3 -0.004906 -0.024104 0.045733 0.006276 -0.009340 0.024579
# 4 0.001914 0.002822 0.006276 0.024191 -0.007357 -0.001974
# 5 -0.002023 0.005180 -0.009340 -0.007357 0.020142 -0.006056
# 6 -0.004304 -0.024254 0.024579 -0.001974 -0.006056 0.049713
#
#
# Mechanical properties :
#
#
# Convention : Reuss Voigt Hill
#
# Bulk Modulus (GPa) = 35.34146 57.12899 46.23522
# Shear Modulus (GPa) = 20.11643 43.15532 31.63587
#
# Velocity S-wave (km/s) = 2.69291 3.94424 3.37704
# Velocity P-wave (km/s) = 4.73383 6.42939 5.64563
#
# Compressibility (1/GPa) = 0.02829538
#
# Stress axis : x y z
#
# Youngs Moduli (GPa) = 129.61838 30.08619 21.86622
#
# Poissons Ratio (x) = 0.00555 0.10728
# Poissons Ratio (y) = 0.02392 0.52707
# Poissons Ratio (z) = 0.63595 0.72520
#
# Static dielectric constant tensor:
#      x y z
#    x 2.001860 -0.028160 -0.026770 
#    y -0.028160 2.373630 -0.094610 
#    z -0.026770 -0.094610 1.577350 
# 
# From -- ./inp_files/71436.got.cif
#   From: 2010.05.17/outbox.cif.g08.bks.cpg/sg2_36_cif.got.tgz:71436.got - 2010.06.03 11:33:40.
