data_PCOD9012926
_publ_section_title
;
Structure prediction by ZEFSAII (Michael W. Deem and Ramdas Pophale) SiO2 
 PCOD9012926
Probable space group: P -1
;
_chemical_formula_sum "Si O2"
_cell_formula_units_Z 15
_cell_length_a 4.899790
_cell_length_b 6.086647
_cell_length_c 20.532675
_cell_angle_alpha 78.133158
_cell_angle_beta 81.300592
_cell_angle_gamma 77.013626
_cell_volume 580.384455
_symmetry_space_group_name_H-M "P -1"
_symmetry_group_IT_number 2
_symmetry_cell_setting 'triclinic'
loop_
_space_group_symop_operation_xyz
x,y,z
-x,-y,-z
loop_
_atom_site_type_symbol
_atom_site_label
_atom_site_fract_x
_atom_site_fract_y
_atom_site_fract_z
Si Si1 0.442513 0.646702 0.639354
Si Si2 0.502543 0.211510 0.232927
Si Si3 0.000000 0.500000 0.000000
Si Si4 0.168025 0.834114 0.311005
Si Si5 0.060657 0.683418 0.190003
Si Si6 0.197516 0.577883 0.879914
Si Si7 0.946064 0.884020 0.575991
Si Si8 0.637156 0.202515 0.954593
O O1 0.344770 0.739316 0.709100
O O2 0.627247 0.397854 0.659485
O O3 0.647152 0.809055 0.595234
O O4 0.184290 0.662205 0.598830
O O5 0.270397 0.440908 0.212926
O O6 0.700133 0.205397 0.163848
O O7 0.349706 0.006700 0.264086
O O8 0.096375 0.368232 0.076441
O O9 0.135891 0.728126 0.009047
O O10 0.987376 0.787676 0.257662
O O11 0.029531 0.945691 0.375350
O O12 0.219896 0.808214 0.122235
O O13 0.808171 0.599735 0.167265
O O14 0.356682 0.416258 0.942910
O O15 0.000000 0.000000 0.500000
O O16 0.500000 0.000000 0.000000
#
# Coordination Sequence:
#
# PCOD9012926 Si02
#       8
#     2   2   1   2   2   2   2   2
#     4  10  24  44  71 106 147 181 250 293 344 451
#     4   9  21  40  63  94 134 179 230 294 356 421
#     4  10  22  38  62  88 126 178 226 292 366 424
#     4  10  23  44  72 103 139 196 233 295 375 415
#     4   9  21  42  60  98 130 173 243 293 347 447
#     4  10  21  41  62  89 134 170 230 299 348 439
#     4  11  25  47  72 108 151 189 238 299 359 432
#     4  10  22  41  60  90 132 176 231 295 360 439
#
# _framework density 25.844935
#
# number of rings (size 3 to 8) (size 9 to 14) (size 15 to 20)
#    0.000    2.133    0.000    0.800    7.467    5.333 
#   16.800    0.000    0.000    0.000    0.000    0.000 
#    0.000    0.000    0.000    0.000    0.000    0.000 
#
# Total GULP energy -83792.450493 kJ/mol
# GULP energy per Si atom -5586.163366 kJ/mol
# Density = 2.578611 g / cm^3
# Si number density = 25.844935 Si / 1000 Ang^3
#
#
#
# Elastic Constant Matrix: (Units=GPa)
#
#
# Indices 1 2 3 4 5 6 
#
# 1 96.8294 20.6190 40.5557 0.5925 -0.4027 14.8360
# 2 20.6190 84.1778 68.1795 1.4603 -4.1204 4.1826
# 3 40.5557 68.1795 206.5217 -3.5847 -25.7703 16.3084
# 4 0.5925 1.4603 -3.5847 36.1766 5.2237 -0.9612
# 5 -0.4027 -4.1204 -25.7703 5.2237 47.6738 -5.7192
# 6 14.8360 4.1826 16.3084 -0.9612 -5.7192 37.6923
#
#
#
# Elastic Compliance Matrix: (Units=1/GPa)
#
#
# Indices 1 2 3 4 5 6 
#
# 1 0.011969 -0.001371 -0.001763 -0.000216 -0.001429 -0.004019
# 2 -0.001371 0.016527 -0.005434 -0.000971 -0.001314 0.000832
# 3 -0.001763 -0.005434 0.007523 0.000471 0.003358 -0.001437
# 4 -0.000216 -0.000971 0.000471 0.028155 -0.002884 0.000270
# 5 -0.001429 -0.001314 0.003358 -0.002884 0.023308 0.002718
# 6 -0.004019 0.000832 -0.001437 0.000270 0.002718 0.029061
#
#
# Mechanical properties :
#
#
# Convention : Reuss Voigt Hill
#
# Bulk Modulus (GPa) = 52.95159 71.80414 62.37786
# Shear Modulus (GPa) = 35.72171 41.52020 38.62095
#
# Velocity S-wave (km/s) = 3.72177 4.01248 3.86985
# Velocity P-wave (km/s) = 6.24511 7.02208 6.64496
#
# Compressibility (1/GPa) = 0.01888518
#
# Stress axis : x y z
#
# Youngs Moduli (GPa) = 83.55196 60.50528 132.93139
#
# Poissons Ratio (x) = 0.08293 0.23429
# Poissons Ratio (y) = 0.11452 0.72230
# Poissons Ratio (z) = 0.14726 0.32876
#
# Static dielectric constant tensor:
#      x y z
#    x 2.482820 -0.194350 -0.189220 
#    y -0.194350 2.170950 0.093550 
#    z -0.189220 0.093550 2.073710 
# 
# From -- ./inp_files/9696.got.cif
#   From: 2010.05.17/outbox.cif.g08.bks.cpg/sg2_5_cif.got.tgz:9696.got - 2010.06.03 11:33:40.
