data_PCOD9012351
_publ_section_title
;
Structure prediction by ZEFSAII (Michael W. Deem and Ramdas Pophale) SiO2 
 PCOD9012351
Probable space group: P -1
;
_chemical_formula_sum "Si O2"
_cell_formula_units_Z 15
_cell_length_a 15.768656
_cell_length_b 10.427738
_cell_length_c 9.118138
_cell_angle_alpha 82.522987
_cell_angle_beta 124.393498
_cell_angle_gamma 140.095322
_cell_volume 650.598866
_symmetry_space_group_name_H-M "P -1"
_symmetry_group_IT_number 2
_symmetry_cell_setting 'triclinic'
loop_
_space_group_symop_operation_xyz
x,y,z
-x,-y,-z
loop_
_atom_site_type_symbol
_atom_site_label
_atom_site_fract_x
_atom_site_fract_y
_atom_site_fract_z
Si Si1 0.500937 0.688302 0.474266
Si Si2 0.791147 0.340661 0.016550
Si Si3 0.179203 0.843243 0.682797
Si Si4 0.500000 0.000000 0.500000
Si Si5 0.174635 0.159108 0.256446
Si Si6 0.213330 0.785225 0.391880
Si Si7 0.578356 0.364779 0.930800
Si Si8 0.951063 0.833718 0.369574
O O1 0.298719 0.420279 0.379046
O O2 0.672279 0.776488 0.676094
O O3 0.592096 0.931878 0.534570
O O4 0.471654 0.635914 0.279023
O O5 0.834305 0.272603 0.183745
O O6 0.686003 0.344061 0.001179
O O7 0.012931 0.615557 0.150170
O O8 0.654322 0.157449 0.777292
O O9 0.204265 0.804846 0.551768
O O10 0.002309 0.752349 0.506695
O O11 0.379340 0.133538 0.855224
O O12 0.696318 0.254814 0.551132
O O13 0.088213 0.995433 0.337460
O O14 0.000000 0.000000 0.000000
O O15 0.733097 0.610564 0.133939
O O16 0.000000 0.000000 0.500000
#
# Coordination Sequence:
#
# PCOD9012351 Si02
#       8
#     2   2   2   1   2   2   2   2
#     4  10  21  40  69  96 124 182 229 271 338 420
#     4  12  24  44  74 106 140 186 227 282 359 431
#     4  11  24  46  72 100 137 192 232 278 357 427
#     4  12  26  42  66 106 144 172 226 292 340 416
#     4  11  21  41  69  95 129 181 237 275 343 406
#     4  11  23  44  69  98 143 176 230 279 352 418
#     4  11  21  43  73  97 140 181 224 285 354 419
#     4  12  26  46  66 103 137 181 239 297 337 405
#
# _framework density 23.055679000000001
#
# number of rings (size 3 to 8) (size 9 to 14) (size 15 to 20)
#    0.000    0.800    8.000    1.200    0.000    0.533 
#    7.200    0.000    0.000    0.000    0.000    0.000 
#    0.000    0.000    0.000    0.000    0.000    0.000 
#
# Total GULP energy -83634.078617 kJ/mol
# GULP energy per Si atom -5575.605241 kJ/mol
# Density = 2.300320 g / cm^3
# Si number density = 23.055679 Si / 1000 Ang^3
#
#
#
# Elastic Constant Matrix: (Units=GPa)
#
#
# Indices 1 2 3 4 5 6 
#
# 1 49.7031 -13.5545 38.4940 -9.1367 -4.0290 -9.3568
# 2 -13.5545 77.1141 35.3722 0.4361 4.7904 -14.1642
# 3 38.4940 35.3722 174.8284 15.8057 6.6435 -12.5717
# 4 -9.1367 0.4361 15.8057 45.2960 -4.0792 8.9104
# 5 -4.0290 4.7904 6.6435 -4.0792 44.8234 7.9903
# 6 -9.3568 -14.1642 -12.5717 8.9104 7.9903 17.5490
#
#
#
# Elastic Compliance Matrix: (Units=1/GPa)
#
#
# Indices 1 2 3 4 5 6 
#
# 1 0.037760 0.015343 -0.010511 0.006937 0.000128 0.021406
# 2 0.015343 0.023338 -0.006097 -0.000333 -0.004690 0.024954
# 3 -0.010511 -0.006097 0.009941 -0.005884 -0.002425 0.000688
# 4 0.006937 -0.000333 -0.005884 0.030087 0.007763 -0.019596
# 5 0.000128 -0.004690 -0.002425 0.007763 0.027821 -0.022063
# 6 0.021406 0.024954 0.000688 -0.019596 -0.022063 0.109027
#
#
# Mechanical properties :
#
#
# Convention : Reuss Voigt Hill
#
# Bulk Modulus (GPa) = 14.59664 46.91877 30.75770
# Shear Modulus (GPa) = 18.98680 37.62261 28.30471
#
# Velocity S-wave (km/s) = 2.87282 4.04396 3.50761
# Velocity P-wave (km/s) = 4.16520 6.49609 5.45656
#
# Compressibility (1/GPa) = 0.06850891
#
# Stress axis : x y z
#
# Youngs Moduli (GPa) = 26.48337 42.84787 100.58907
#
# Poissons Ratio (x) = -0.65742 1.05729
# Poissons Ratio (y) = -0.40634 0.61333
# Poissons Ratio (z) = 0.27837 0.26126
#
# Static dielectric constant tensor:
#      x y z
#    x 2.175530 0.160850 -0.138710 
#    y 0.160850 2.296540 -0.160530 
#    z -0.138710 -0.160530 2.064430 
# 
# From -- ./inp_files/332010.got.cif
#   From: 2010.05.17/outbox.cif.g08.bks.cpg/sg2_167_cif.got.tgz:332010.got - 2010.06.03 11:33:40.
