data_PCOD9012198
_publ_section_title
;
Structure prediction by ZEFSAII (Michael W. Deem and Ramdas Pophale) SiO2 
 PCOD9012198
Probable space group: P -1
;
_chemical_formula_sum "Si O2"
_cell_formula_units_Z 12
_cell_length_a 8.587930
_cell_length_b 13.285220
_cell_length_c 8.371234
_cell_angle_alpha 66.758712
_cell_angle_beta 79.268551
_cell_angle_gamma 37.483248
_cell_volume 520.098839
_symmetry_space_group_name_H-M "P -1"
_symmetry_group_IT_number 2
_symmetry_cell_setting 'triclinic'
loop_
_space_group_symop_operation_xyz
x,y,z
-x,-y,-z
loop_
_atom_site_type_symbol
_atom_site_label
_atom_site_fract_x
_atom_site_fract_y
_atom_site_fract_z
Si Si1 0.218918 0.676053 0.524275
Si Si2 0.899516 0.476261 0.398648
Si Si3 0.366914 0.266111 0.232776
Si Si4 0.282312 0.539212 0.947317
Si Si5 0.301413 0.105841 0.119339
Si Si6 0.639817 0.164826 0.587031
O O1 0.500000 0.500000 0.500000
O O2 0.035746 0.686598 0.468083
O O3 0.234593 0.612433 0.734712
O O4 0.171734 0.831586 0.448177
O O5 0.591401 0.671116 0.348238
O O6 0.000000 0.500000 0.500000
O O7 0.063186 0.419333 0.248795
O O8 0.416255 0.126286 0.217611
O O9 0.525092 0.206718 0.403571
O O10 0.393458 0.355625 0.057162
O O11 0.998867 0.696111 0.990220
O O12 0.500000 0.500000 0.000000
O O13 0.268594 0.002288 0.262751
O O14 0.500000 0.000000 0.000000
#
# Coordination Sequence:
#
# PCOD9012198 Si02
#       6
#     2   2   2   2   2   2
#     4  10  21  40  68  99 134 177 225 280 338 410
#     4   9  19  38  68 101 125 178 232 274 326 417
#     4  11  22  43  69  95 135 187 230 274 336 419
#     4  12  25  46  69 100 137 183 232 276 340 415
#     4  12  27  44  68 104 140 178 228 292 340 392
#     4  10  22  42  66 100 137 174 226 284 350 394
#
# _framework density 23.072537000000001
#
# number of rings (size 3 to 8) (size 9 to 14) (size 15 to 20)
#    0.000    1.333    3.333    2.000    4.667    0.667 
#    0.000    0.833    0.000    0.000    0.000    0.000 
#    0.000    0.000    0.000    0.000    0.000    0.000 
#
# Total GULP energy -66962.730921 kJ/mol
# GULP energy per Si atom -5580.227577 kJ/mol
# Density = 2.302002 g / cm^3
# Si number density = 23.072537 Si / 1000 Ang^3
#
#
#
# Elastic Constant Matrix: (Units=GPa)
#
#
# Indices 1 2 3 4 5 6 
#
# 1 165.7825 46.1664 37.5884 -10.7285 -26.6881 51.8454
# 2 46.1664 106.6899 39.9372 13.1325 -8.2323 22.9523
# 3 37.5884 39.9372 77.6803 4.2160 -26.5980 17.2952
# 4 -10.7285 13.1325 4.2160 46.7430 10.2293 -14.8434
# 5 -26.6881 -8.2323 -26.5980 10.2293 40.9472 -11.3744
# 6 51.8454 22.9523 17.2952 -14.8434 -11.3744 60.1779
#
#
#
# Elastic Compliance Matrix: (Units=1/GPa)
#
#
# Indices 1 2 3 4 5 6 
#
# 1 0.009341 -0.002092 -0.000907 0.000077 0.003296 -0.006347
# 2 -0.002092 0.013453 -0.005719 -0.004267 -0.002183 -0.003150
# 3 -0.000907 -0.005719 0.021084 -0.003754 0.012428 -0.001674
# 4 0.000077 -0.004267 -0.003754 0.027161 -0.007850 0.007856
# 5 0.003296 -0.002183 0.012428 -0.007850 0.035966 -0.000717
# 6 -0.006347 -0.003150 -0.001674 0.007856 -0.000717 0.025570
#
#
# Mechanical properties :
#
#
# Convention : Reuss Voigt Hill
#
# Bulk Modulus (GPa) = 37.81720 66.39296 52.10508
# Shear Modulus (GPa) = 31.48128 44.67099 38.07613
#
# Velocity S-wave (km/s) = 3.69785 4.40490 4.06677
# Velocity P-wave (km/s) = 5.88713 7.39656 6.68459
#
# Compressibility (1/GPa) = 0.02644299
#
# Stress axis : x y z
#
# Youngs Moduli (GPa) = 107.05940 74.33025 47.42948
#
# Poissons Ratio (x) = 0.15551 0.04300
# Poissons Ratio (y) = 0.22399 0.27124
# Poissons Ratio (z) = 0.09706 0.42508
#
# Static dielectric constant tensor:
#      x y z
#    x 2.022340 0.052650 0.032810 
#    y 0.052650 2.058190 0.002400 
#    z 0.032810 0.002400 1.878800 
# 
# From -- ./inp_files/155637.got.cif
#   From: 2010.05.17/outbox.cif.g08.bks.cpg/sg2_78_cif.got.tgz:155637.got - 2010.06.03 11:33:40.
