data_PCOD9012210
_publ_section_title
;
Structure prediction by ZEFSAII (Michael W. Deem and Ramdas Pophale) SiO2 
 PCOD9012210
Probable space group: P -1
;
_chemical_formula_sum "Si O2"
_cell_formula_units_Z 14
_cell_length_a 7.746276
_cell_length_b 9.515676
_cell_length_c 11.798637
_cell_angle_alpha 52.142469
_cell_angle_beta 103.490774
_cell_angle_gamma 74.536821
_cell_volume 564.642077
_symmetry_space_group_name_H-M "P -1"
_symmetry_group_IT_number 2
_symmetry_cell_setting 'triclinic'
loop_
_space_group_symop_operation_xyz
x,y,z
-x,-y,-z
loop_
_atom_site_type_symbol
_atom_site_label
_atom_site_fract_x
_atom_site_fract_y
_atom_site_fract_z
Si Si1 0.064956 0.217774 0.034238
Si Si2 0.413374 0.693994 0.719616
Si Si3 0.491281 0.095968 0.829770
Si Si4 0.717750 0.489520 0.678279
Si Si5 0.801740 0.452766 0.070957
Si Si6 0.824885 0.437970 0.473889
Si Si7 0.794572 0.857381 0.443405
O O1 0.113329 0.403829 0.946748
O O2 0.880905 0.293890 0.877331
O O3 0.972735 0.243154 0.133309
O O4 0.277823 0.008375 0.135483
O O5 0.495194 0.611777 0.646960
O O6 0.290629 0.605127 0.810202
O O7 0.289170 0.944248 0.587019
O O8 0.624869 0.592676 0.880251
O O9 0.366727 0.343703 0.708723
O O10 0.354434 0.062805 0.731313
O O11 0.500000 0.000000 0.000000
O O12 0.747346 0.403374 0.598549
O O13 0.772003 0.672848 0.585640
O O14 0.000000 0.500000 0.500000
O O15 0.966784 0.241318 0.512633
#
# Coordination Sequence:
#
# PCOD9012210 Si02
#       7
#     2   2   2   2   2   2   2
#     4  10  17  33  54  77 102 131 177 214 258 297
#     4  10  18  34  53  77 108 138 173 209 262 307
#     4  10  17  29  55  79 100 133 175 219 251 301
#     4   9  18  31  55  78 107 135 173 211 254 313
#     4   9  20  32  52  77 106 136 169 220 254 307
#     4   8  17  31  49  81 103 135 175 207 252 314
#     4  10  18  32  53  81 103 142 171 211 254 318
#
# _framework density 24.79447
#
# number of rings (size 3 to 8) (size 9 to 14) (size 15 to 20)
#    0.000    2.857    1.429    3.000    0.000    0.000 
#    0.000    0.714    3.143    4.286    0.000    1.000 
#    0.000    0.000    0.000    0.000    0.000    0.571 
#
# Total GULP energy -78342.452023 kJ/mol
# GULP energy per Si atom -5595.889430 kJ/mol
# Density = 2.473804 g / cm^3
# Si number density = 24.794470 Si / 1000 Ang^3
#
#
#
# Elastic Constant Matrix: (Units=GPa)
#
#
# Indices 1 2 3 4 5 6 
#
# 1 78.8847 70.0276 26.3165 -1.1555 -6.8030 -43.9032
# 2 70.0276 161.7262 57.8954 -17.3648 9.5238 -50.7546
# 3 26.3165 57.8954 91.9553 -0.5609 10.5898 -20.8375
# 4 -1.1555 -17.3648 -0.5609 36.7953 -11.9629 11.4606
# 5 -6.8030 9.5238 10.5898 -11.9629 31.8854 -0.6928
# 6 -43.9032 -50.7546 -20.8375 11.4606 -0.6928 61.8689
#
#
#
# Elastic Compliance Matrix: (Units=1/GPa)
#
#
# Indices 1 2 3 4 5 6 
#
# 1 0.029483 -0.009168 -0.000284 -0.005494 0.007375 0.014405
# 2 -0.009168 0.013072 -0.004900 0.004451 -0.002526 0.001715
# 3 -0.000284 -0.004900 0.014955 -0.004239 -0.005121 0.001544
# 4 -0.005494 0.004451 -0.004239 0.035483 0.012043 -0.008113
# 5 0.007375 -0.002526 -0.005121 0.012043 0.039901 -0.000348
# 6 0.014405 0.001715 0.001544 -0.008113 -0.000348 0.029811
#
#
# Mechanical properties :
#
#
# Convention : Reuss Voigt Hill
#
# Bulk Modulus (GPa) = 34.71490 71.22722 52.97106
# Shear Modulus (GPa) = 24.87446 37.99838 31.43642
#
# Velocity S-wave (km/s) = 3.17081 3.91901 3.56459
# Velocity P-wave (km/s) = 5.23802 7.01909 6.19292
#
# Compressibility (1/GPa) = 0.02880608
#
# Stress axis : x y z
#
# Youngs Moduli (GPa) = 33.91839 76.50067 66.86883
#
# Poissons Ratio (x) = 0.70133 0.01899
# Poissons Ratio (y) = 0.31095 0.32764
# Poissons Ratio (z) = 0.00963 0.37483
#
# Static dielectric constant tensor:
#      x y z
#    x 2.052030 0.022230 0.051340 
#    y 0.022230 1.975660 0.033830 
#    z 0.051340 0.033830 1.942560 
# 
# From -- ./inp_files/392079.got.cif
#   From: 2010.05.17/outbox.cif.g08.bks.cpg/sg2_197_cif.got.tgz:392079.got - 2010.06.03 11:33:40.
