data_PCOD9012830
_publ_section_title
;
Structure prediction by ZEFSAII (Michael W. Deem and Ramdas Pophale) SiO2 
 PCOD9012830
Probable space group: P -1
;
_chemical_formula_sum "Si O2"
_cell_formula_units_Z 16
_cell_length_a 14.206381
_cell_length_b 8.985161
_cell_length_c 6.949619
_cell_angle_alpha 101.190263
_cell_angle_beta 74.789682
_cell_angle_gamma 132.038602
_cell_volume 635.551475
_symmetry_space_group_name_H-M "P -1"
_symmetry_group_IT_number 2
_symmetry_cell_setting 'triclinic'
loop_
_space_group_symop_operation_xyz
x,y,z
-x,-y,-z
loop_
_atom_site_type_symbol
_atom_site_label
_atom_site_fract_x
_atom_site_fract_y
_atom_site_fract_z
Si Si1 0.669026 0.159478 0.189419
Si Si2 0.981961 0.256231 0.372010
Si Si3 0.666439 0.696631 0.887795
Si Si4 0.080922 0.731555 0.021119
Si Si5 0.030538 0.990911 0.204790
Si Si6 0.782391 0.298039 0.584279
Si Si7 0.467256 0.281236 0.721128
Si Si8 0.447365 0.151223 0.273480
O O1 0.775524 0.186716 0.005514
O O2 0.740292 0.282358 0.379829
O O3 0.582922 0.207765 0.164681
O O4 0.572762 0.926297 0.240848
O O5 0.970133 0.066789 0.376333
O O6 0.129857 0.468314 0.340502
O O7 0.920530 0.209055 0.180955
O O8 0.890740 0.275765 0.543863
O O9 0.816365 0.844161 0.814402
O O10 0.599145 0.477549 0.789073
O O11 0.603588 0.775314 0.828605
O O12 0.634351 0.702132 0.129101
O O13 0.000000 0.500000 0.000000
O O14 0.008367 0.789226 0.193251
O O15 0.000000 0.000000 0.000000
O O16 0.654504 0.088634 0.687984
O O17 0.466634 0.264711 0.489456
#
# Coordination Sequence:
#
# PCOD9012830 Si02
#       8
#     2   2   2   2   2   2   2   2
#     4  10  21  41  63  94 132 172 221 265 338 399
#     4   9  20  37  65  87 123 177 231 254 338 406
#     4  11  24  42  67  95 135 172 225 270 337 396
#     4  10  21  41  61  91 133 166 215 289 324 383
#     4  10  22  41  63  91 126 175 221 276 326 396
#     4   9  19  38  65  91 129 176 216 279 329 392
#     4  10  22  44  65  91 139 176 205 277 333 388
#     4  11  24  40  67  99 134 171 223 273 331 395
#
# _framework density 25.174989
#
# number of rings (size 3 to 8) (size 9 to 14) (size 15 to 20)
#    0.000    2.000    1.250    1.875    7.000    0.500 
#    9.000    1.875    0.000    0.000    0.000    0.000 
#    0.000    0.000    0.000    0.000    0.000    0.000 
#
# Total GULP energy -89412.529789 kJ/mol
# GULP energy per Si atom -5588.283112 kJ/mol
# Density = 2.511769 g / cm^3
# Si number density = 25.174989 Si / 1000 Ang^3
#
#
#
# Elastic Constant Matrix: (Units=GPa)
#
#
# Indices 1 2 3 4 5 6 
#
# 1 148.8916 39.8165 28.2981 6.2708 -13.2805 -3.5984
# 2 39.8165 106.1099 8.5195 20.9805 -14.7984 9.3043
# 3 28.2981 8.5195 93.5449 27.0423 -2.6987 -6.8064
# 4 6.2708 20.9805 27.0423 33.7163 -0.3529 3.2303
# 5 -13.2805 -14.7984 -2.6987 -0.3529 32.0256 10.3136
# 6 -3.5984 9.3043 -6.8064 3.2303 10.3136 30.2082
#
#
#
# Elastic Compliance Matrix: (Units=1/GPa)
#
#
# Indices 1 2 3 4 5 6 
#
# 1 0.008155 -0.003204 -0.002896 0.002770 0.001531 0.000487
# 2 -0.003204 0.013674 0.002132 -0.009026 0.006835 -0.005482
# 3 -0.002896 0.002132 0.015627 -0.013719 -0.000376 0.004115
# 4 0.002770 -0.009026 -0.013719 0.046134 -0.002345 -0.004114
# 5 0.001531 0.006835 -0.000376 -0.002345 0.039915 -0.015384
# 6 0.000487 -0.005482 0.004115 -0.004114 -0.015384 0.041470
#
#
# Mechanical properties :
#
#
# Convention : Reuss Voigt Hill
#
# Bulk Modulus (GPa) = 33.87798 55.75716 44.81757
# Shear Modulus (GPa) = 27.35949 37.31750 32.33849
#
# Velocity S-wave (km/s) = 3.30020 3.85427 3.58795
# Velocity P-wave (km/s) = 5.29226 6.48098 5.91655
#
# Compressibility (1/GPa) = 0.02951770
#
# Stress axis : x y z
#
# Youngs Moduli (GPa) = 122.61874 73.13143 63.99332
#
# Poissons Ratio (x) = 0.23435 0.18534
# Poissons Ratio (y) = 0.39293 -0.13641
# Poissons Ratio (z) = 0.35513 -0.15589
#
# Static dielectric constant tensor:
#      x y z
#    x 1.679380 -0.022660 -0.280310 
#    y -0.022660 2.003850 -0.040860 
#    z -0.280310 -0.040860 1.856390 
# 
# From -- ./inp_files/299124.got.cif
#   From: 2010.05.17/outbox.cif.g08.bks.cpg/sg2_150_cif.got.tgz:299124.got - 2010.06.03 11:33:40.
