data_PCOD9012574
_publ_section_title
;
Structure prediction by ZEFSAII (Michael W. Deem and Ramdas Pophale) SiO2 
 PCOD9012574
Probable space group: P -1
;
_chemical_formula_sum "Si O2"
_cell_formula_units_Z 16
_cell_length_a 8.957933
_cell_length_b 9.627293
_cell_length_c 23.782300
_cell_angle_alpha 125.254444
_cell_angle_beta 150.244756
_cell_angle_gamma 48.134633
_cell_volume 758.034865
_symmetry_space_group_name_H-M "P -1"
_symmetry_group_IT_number 2
_symmetry_cell_setting 'triclinic'
loop_
_space_group_symop_operation_xyz
x,y,z
-x,-y,-z
loop_
_atom_site_type_symbol
_atom_site_label
_atom_site_fract_x
_atom_site_fract_y
_atom_site_fract_z
Si Si1 0.771064 0.622733 0.265015
Si Si2 0.866166 0.378190 0.503662
Si Si3 0.781459 0.630135 0.745307
Si Si4 0.603125 0.304722 0.021532
Si Si5 0.380249 0.372739 0.088906
Si Si6 0.381805 0.923969 0.125793
Si Si7 0.551678 0.245629 0.230843
Si Si8 0.744673 0.780580 0.517038
O O1 0.605981 0.486259 0.199840
O O2 0.472925 0.798999 0.181828
O O3 0.979716 0.651796 0.390937
O O4 0.003564 0.528814 0.265490
O O5 0.585494 0.299704 0.384641
O O6 0.690839 0.602614 0.483886
O O7 0.159607 0.275131 0.530296
O O8 0.711916 0.589924 0.778241
O O9 0.005372 0.749497 0.852035
O O10 0.455747 0.306723 0.034675
O O11 0.500000 0.500000 0.000000
O O12 0.475188 0.194355 0.911330
O O13 0.453123 0.233717 0.132148
O O14 0.000000 0.500000 0.000000
O O15 0.545973 0.067813 0.218503
O O16 0.000000 0.000000 0.000000
O O17 0.904805 0.246936 0.348879
O O18 0.500000 0.000000 0.500000
#
# Coordination Sequence:
#
# PCOD9012574 Si02
#       8
#     2   2   2   2   2   2   2   2
#     4  11  23  43  67  99 126 177 224 267 333 405
#     4  10  22  45  68  99 131 178 229 270 335 403
#     4  10  21  40  71  89 128 173 213 274 330 397
#     4  11  21  41  64  94 125 173 215 264 332 392
#     4  11  22  39  67  92 127 170 220 267 322 409
#     4  12  24  41  65  95 135 166 216 280 334 387
#     4  11  23  42  63  98 129 168 216 276 336 385
#     4  10  23  43  66  98 140 173 215 282 335 392
#
# _framework density 21.107209000000001
#
# number of rings (size 3 to 8) (size 9 to 14) (size 15 to 20)
#    0.000    1.250    5.000    1.875    1.750    0.500 
#    6.750    1.250    0.000    0.000    0.000    0.000 
#    0.000    0.000    0.000    0.000    0.000    0.000 
#
# Total GULP energy -89070.565108 kJ/mol
# GULP energy per Si atom -5566.910319 kJ/mol
# Density = 2.105917 g / cm^3
# Si number density = 21.107209 Si / 1000 Ang^3
#
#
#
# Elastic Constant Matrix: (Units=GPa)
#
#
# Indices 1 2 3 4 5 6 
#
# 1 106.6602 20.0497 36.8140 -16.5260 -13.6297 -15.4577
# 2 20.0497 68.5028 15.7720 -0.0758 -8.5250 -5.5671
# 3 36.8140 15.7720 103.8117 9.8825 -15.8222 -6.8813
# 4 -16.5260 -0.0758 9.8825 30.4054 1.0206 -2.8022
# 5 -13.6297 -8.5250 -15.8222 1.0206 47.4393 0.5509
# 6 -15.4577 -5.5671 -6.8813 -2.8022 0.5509 19.5740
#
#
#
# Elastic Compliance Matrix: (Units=1/GPa)
#
#
# Indices 1 2 3 4 5 6 
#
# 1 0.014986 -0.002096 -0.004999 0.010711 0.001904 0.010961
# 2 -0.002096 0.015901 -0.001184 -0.000563 0.001846 0.002319
# 3 -0.004999 -0.001184 0.012603 -0.006993 0.002716 -0.000931
# 4 0.010711 -0.000563 -0.006993 0.042090 -0.000400 0.011877
# 5 0.001904 0.001846 0.002716 -0.000400 0.022846 0.002283
# 6 0.010961 0.002319 -0.000931 0.011877 0.002283 0.061712
#
#
# Mechanical properties :
#
#
# Convention : Reuss Voigt Hill
#
# Bulk Modulus (GPa) = 37.12831 47.13844 42.13338
# Shear Modulus (GPa) = 25.55246 33.23966 29.39606
#
# Velocity S-wave (km/s) = 3.48315 3.97268 3.73594
# Velocity P-wave (km/s) = 5.81420 6.58971 6.21407
#
# Compressibility (1/GPa) = 0.02693362
#
# Stress axis : x y z
#
# Youngs Moduli (GPa) = 66.72707 62.88723 79.34350
#
# Poissons Ratio (x) = 0.13179 0.39664
# Poissons Ratio (y) = 0.13984 0.09395
# Poissons Ratio (z) = 0.33357 0.07447
#
# Static dielectric constant tensor:
#      x y z
#    x 1.864920 -0.095690 -0.055210 
#    y -0.095690 1.984300 -0.022700 
#    z -0.055210 -0.022700 1.783440 
# 
# From -- ./inp_files/606764.got.cif
#   From: 2010.05.17/outbox.cif.g08.bks.cpg/sg2_304_cif.got.tgz:606764.got - 2010.06.03 11:33:40.
