data_PCOD9012593
_publ_section_title
;
Structure prediction by ZEFSAII (Michael W. Deem and Ramdas Pophale) SiO2 
 PCOD9012593
Probable space group: P -1
;
_chemical_formula_sum "Si O2"
_cell_formula_units_Z 12
_cell_length_a 5.617693
_cell_length_b 8.449354
_cell_length_c 12.353717
_cell_angle_alpha 71.985320
_cell_angle_beta 108.025099
_cell_angle_gamma 77.343490
_cell_volume 497.098961
_symmetry_space_group_name_H-M "P -1"
_symmetry_group_IT_number 2
_symmetry_cell_setting 'triclinic'
loop_
_space_group_symop_operation_xyz
x,y,z
-x,-y,-z
loop_
_atom_site_type_symbol
_atom_site_label
_atom_site_fract_x
_atom_site_fract_y
_atom_site_fract_z
Si Si1 0.188566 0.611886 0.965923
Si Si2 0.838426 0.141209 0.532039
Si Si3 0.498523 0.510268 0.368393
Si Si4 0.776930 0.947364 0.762380
Si Si5 0.295761 0.175938 0.742494
Si Si6 0.954051 0.231264 0.859348
O O1 0.004834 0.756436 0.824022
O O2 0.500000 0.500000 0.000000
O O3 0.154477 0.733657 0.042966
O O4 0.000000 0.500000 0.000000
O O5 0.037378 0.196349 0.628022
O O6 0.656949 0.309426 0.403804
O O7 0.000000 0.000000 0.500000
O O8 0.696912 0.048129 0.615574
O O9 0.500000 0.500000 0.500000
O O10 0.618283 0.658461 0.315679
O O11 0.205985 0.583201 0.262281
O O12 0.500975 0.980577 0.779778
O O13 0.885272 0.072180 0.827414
O O14 0.249270 0.189707 0.862527
#
# Coordination Sequence:
#
# PCOD9012593 Si02
#       6
#     2   2   2   2   2   2
#     4  12  31  49  71 105 141 180 233 298 354 407
#     4  11  24  37  64 100 141 173 220 287 345 410
#     4  11  20  41  65 102 131 177 230 271 340 416
#     4  10  24  46  68  96 132 184 236 276 345 417
#     4  10  21  40  71  97 130 182 233 275 341 417
#     4  10  24  43  74  95 134 184 231 286 335 422
#
# _framework density 24.140060999999999
#
# number of rings (size 3 to 8) (size 9 to 14) (size 15 to 20)
#    0.000    1.333    5.000    1.000   11.667    1.333 
#    0.000    0.000    0.000    0.000    0.000    0.000 
#    0.000    0.000    0.000    0.000    0.000    0.000 
#
# Total GULP energy -66868.655913 kJ/mol
# GULP energy per Si atom -5572.387993 kJ/mol
# Density = 2.408512 g / cm^3
# Si number density = 24.140061 Si / 1000 Ang^3
#
#
#
# Elastic Constant Matrix: (Units=GPa)
#
#
# Indices 1 2 3 4 5 6 
#
# 1 80.1202 29.8674 16.9668 -10.1730 -8.5689 -31.7670
# 2 29.8674 131.8126 37.5896 -23.4111 -1.3784 -40.9304
# 3 16.9668 37.5896 71.1656 -14.3243 -3.7683 -18.5967
# 4 -10.1730 -23.4111 -14.3243 55.4804 -17.2102 5.7089
# 5 -8.5689 -1.3784 -3.7683 -17.2102 19.2155 3.4850
# 6 -31.7670 -40.9304 -18.5967 5.7089 3.4850 45.0707
#
#
#
# Elastic Compliance Matrix: (Units=1/GPa)
#
#
# Indices 1 2 3 4 5 6 
#
# 1 0.019251 0.000738 0.000231 0.006356 0.012091 0.012594
# 2 0.000738 0.012000 -0.003048 0.004291 0.002729 0.009405
# 3 0.000231 -0.003048 0.018029 0.005408 0.007618 0.003559
# 4 0.006356 0.004291 0.005408 0.031917 0.032048 0.004087
# 5 0.012091 0.002729 0.007618 0.032048 0.087220 0.003340
# 6 0.012594 0.009405 0.003559 0.004087 0.003340 0.040298
#
#
# Mechanical properties :
#
#
# Convention : Reuss Voigt Hill
#
# Bulk Modulus (GPa) = 22.16270 50.21624 36.18947
# Shear Modulus (GPa) = 21.93813 37.19829 29.56821
#
# Velocity S-wave (km/s) = 3.01788 3.92973 3.50360
# Velocity P-wave (km/s) = 4.61998 6.43721 5.60276
#
# Compressibility (1/GPa) = 0.04512085
#
# Stress axis : x y z
#
# Youngs Moduli (GPa) = 51.94597 83.33523 55.46717
#
# Poissons Ratio (x) = -0.06151 -0.01282
# Poissons Ratio (y) = -0.03834 0.16908
# Poissons Ratio (z) = -0.01200 0.25403
#
# Static dielectric constant tensor:
#      x y z
#    x 2.237730 -0.094190 -0.011070 
#    y -0.094190 2.032250 0.001460 
#    z -0.011070 0.001460 2.014840 
# 
# From -- ./inp_files/19498.got.cif
#   From: 2010.05.17/outbox.cif.g08.bks.cpg/sg2_10_cif.got.tgz:19498.got - 2010.06.03 11:33:40.
