data_PCOD9012044
_publ_section_title
;
Structure prediction by ZEFSAII (Michael W. Deem and Ramdas Pophale) SiO2 
 PCOD9012044
Probable space group: P -1
;
_chemical_formula_sum "Si O2"
_cell_formula_units_Z 16
_cell_length_a 11.522176
_cell_length_b 11.691203
_cell_length_c 15.361901
_cell_angle_alpha 131.830364
_cell_angle_beta 27.005184
_cell_angle_gamma 124.151059
_cell_volume 696.844339
_symmetry_space_group_name_H-M "P -1"
_symmetry_group_IT_number 2
_symmetry_cell_setting 'triclinic'
loop_
_space_group_symop_operation_xyz
x,y,z
-x,-y,-z
loop_
_atom_site_type_symbol
_atom_site_label
_atom_site_fract_x
_atom_site_fract_y
_atom_site_fract_z
Si Si1 0.005478 0.257645 0.324070
Si Si2 0.736861 0.454414 0.965211
Si Si3 0.291401 0.088024 0.556390
Si Si4 0.472847 0.633219 0.769547
Si Si5 0.693888 0.591676 0.360947
Si Si6 0.449947 0.203466 0.685921
Si Si7 0.062240 0.574632 0.361865
Si Si8 0.732239 0.035680 0.925875
O O1 0.722832 0.221435 0.464136
O O2 0.099252 0.397615 0.278498
O O3 0.940269 0.320990 0.497862
O O4 0.197466 0.104280 0.125801
O O5 0.021637 0.429377 0.801995
O O6 0.750495 0.398238 0.828498
O O7 0.558861 0.367748 0.105174
O O8 0.647530 0.635875 0.123583
O O9 0.377617 0.226570 0.511678
O O10 0.268805 0.151695 0.703870
O O11 0.005366 0.050076 0.702307
O O12 0.483027 0.933975 0.359793
O O13 0.324143 0.493749 0.762995
O O14 0.771722 0.603568 0.535233
O O15 0.354024 0.795088 0.893686
O O16 0.500000 0.500000 0.500000
O O17 0.500000 0.000000 0.000000
#
# Coordination Sequence:
#
# PCOD9012044 Si02
#       8
#     2   2   2   2   2   2   2   2
#     4  10  22  43  64  92 135 170 219 278 321 392
#     4  12  23  40  67 100 128 178 220 268 332 393
#     4  10  21  41  68  97 131 176 219 272 331 389
#     4  12  22  43  67  95 136 171 221 274 326 392
#     4  12  23  40  68  97 134 175 219 273 327 390
#     4  10  21  40  68  92 130 174 216 275 331 382
#     4  11  23  41  66  95 129 176 222 268 326 397
#     4  11  22  39  70  96 132 179 212 269 346 384
#
# _framework density 22.960652
#
# number of rings (size 3 to 8) (size 9 to 14) (size 15 to 20)
#    0.000    1.000    6.250    1.125    0.000    0.500 
#    2.250    1.250    2.750    0.000    0.000    0.000 
#    0.000    0.000    0.000    0.000    0.000    0.000 
#
# Total GULP energy -89475.498780 kJ/mol
# GULP energy per Si atom -5592.218674 kJ/mol
# Density = 2.290839 g / cm^3
# Si number density = 22.960652 Si / 1000 Ang^3
#
#
#
# Elastic Constant Matrix: (Units=GPa)
#
#
# Indices 1 2 3 4 5 6 
#
# 1 63.6977 11.9187 29.7827 -3.8964 -15.7842 -2.5578
# 2 11.9187 127.9014 35.8708 22.1278 -14.4174 -27.5080
# 3 29.7827 35.8708 69.8215 5.8184 -5.8865 -29.3353
# 4 -3.8964 22.1278 5.8184 44.6055 -13.4794 -13.0840
# 5 -15.7842 -14.4174 -5.8865 -13.4794 38.4967 1.2421
# 6 -2.5578 -27.5080 -29.3353 -13.0840 1.2421 39.0314
#
#
#
# Elastic Compliance Matrix: (Units=1/GPa)
#
#
# Indices 1 2 3 4 5 6 
#
# 1 0.024058 0.000202 -0.012675 0.004717 0.009864 -0.006540
# 2 0.000202 0.010301 -0.003398 -0.002875 0.002295 0.003682
# 3 -0.012675 -0.003398 0.029362 0.001891 -0.001948 0.019538
# 4 0.004717 -0.002875 0.001891 0.030245 0.011431 0.009479
# 5 0.009864 0.002295 -0.001948 0.011431 0.034471 0.003535
# 6 -0.006540 0.003682 0.019538 0.009479 0.003535 0.045536
#
#
# Mechanical properties :
#
#
# Convention : Reuss Voigt Hill
#
# Bulk Modulus (GPa) = 31.27116 46.28500 38.77808
# Shear Modulus (GPa) = 23.10803 36.68330 29.89566
#
# Velocity S-wave (km/s) = 3.17585 4.00141 3.61229
# Velocity P-wave (km/s) = 5.20548 6.44597 5.85865
#
# Compressibility (1/GPa) = 0.03197834
#
# Stress axis : x y z
#
# Youngs Moduli (GPa) = 41.56597 97.07964 34.05779
#
# Poissons Ratio (x) = -0.01963 0.43169
# Poissons Ratio (y) = -0.00841 0.11574
# Poissons Ratio (z) = 0.52686 0.32990
#
# Static dielectric constant tensor:
#      x y z
#    x 1.944220 0.009580 0.012190 
#    y 0.009580 1.859310 0.002050 
#    z 0.012190 0.002050 1.843110 
# 
# From -- ./inp_files/427735.got.cif
#   From: 2010.05.17/outbox.cif.g08.bks.cpg/sg2_214_cif.got.tgz:427735.got - 2010.06.03 11:33:40.
