data_PCOD9012920
_publ_section_title
;
Structure prediction by ZEFSAII (Michael W. Deem and Ramdas Pophale) SiO2 
 PCOD9012920
Probable space group: P -1
;
_chemical_formula_sum "Si O2"
_cell_formula_units_Z 16
_cell_length_a 7.391961
_cell_length_b 22.341943
_cell_length_c 7.127190
_cell_angle_alpha 62.050403
_cell_angle_beta 119.756914
_cell_angle_gamma 138.617315
_cell_volume 665.953798
_symmetry_space_group_name_H-M "P -1"
_symmetry_group_IT_number 2
_symmetry_cell_setting 'triclinic'
loop_
_space_group_symop_operation_xyz
x,y,z
-x,-y,-z
loop_
_atom_site_type_symbol
_atom_site_label
_atom_site_fract_x
_atom_site_fract_y
_atom_site_fract_z
Si Si1 0.681700 0.403535 0.959389
Si Si2 0.173971 0.351492 0.989157
Si Si3 0.607273 0.908174 0.866487
Si Si4 0.320469 0.836346 0.207663
Si Si5 0.983724 0.112028 0.847363
Si Si6 0.175519 0.598580 0.354188
Si Si7 0.489875 0.748326 0.631695
Si Si8 0.959286 0.787091 0.616316
O O1 0.625923 0.317864 0.152089
O O2 0.469763 0.406484 0.956955
O O3 0.633246 0.387112 0.736900
O O4 0.000000 0.500000 0.000000
O O5 0.951693 0.258947 0.886574
O O6 0.046821 0.397749 0.856913
O O7 0.167899 0.314015 0.243863
O O8 0.295956 0.853923 0.710539
O O9 0.807836 0.016495 0.784777
O O10 0.559364 0.888085 0.095678
O O11 0.771093 0.875947 0.938346
O O12 0.232223 0.892269 0.134047
O O13 0.412387 0.809187 0.468298
O O14 0.103624 0.192879 0.644023
O O15 0.340167 0.675638 0.486057
O O16 0.000000 0.500000 0.500000
O O17 0.817529 0.804981 0.673471
#
# Coordination Sequence:
#
# PCOD9012920 Si02
#       8
#     2   2   2   2   2   2   2   2
#     4  11  23  42  63  92 130 166 219 272 324 392
#     4   9  24  40  62  92 123 167 216 266 315 398
#     4  10  22  42  61  93 133 162 218 267 321 394
#     4  10  21  41  62  89 127 163 216 265 321 386
#     4  11  22  38  68  93 122 176 210 264 336 380
#     4  11  23  43  66  90 132 169 214 276 331 381
#     4  10  22  44  63  97 128 171 220 272 325 396
#     4  10  21  42  63  88 134 163 212 271 318 386
#
# _framework density 24.025690999999998
#
# number of rings (size 3 to 8) (size 9 to 14) (size 15 to 20)
#    0.000    1.750    2.500    0.750    3.500    1.000 
#    4.500    0.625    0.000    0.000    0.000    0.000 
#    0.000    0.000    0.000    0.000    0.000    0.000 
#
# Total GULP energy -89520.318306 kJ/mol
# GULP energy per Si atom -5595.019894 kJ/mol
# Density = 2.397101 g / cm^3
# Si number density = 24.025691 Si / 1000 Ang^3
#
#
#
# Elastic Constant Matrix: (Units=GPa)
#
#
# Indices 1 2 3 4 5 6 
#
# 1 86.9690 36.0595 6.1766 2.4660 18.5383 8.2631
# 2 36.0595 80.9020 15.5054 1.7996 7.9817 18.2474
# 3 6.1766 15.5054 86.1062 -2.3755 13.0502 -2.3632
# 4 2.4660 1.7996 -2.3755 17.9938 4.2105 2.9115
# 5 18.5383 7.9817 13.0502 4.2105 56.3163 -4.7658
# 6 8.2631 18.2474 -2.3632 2.9115 -4.7658 35.9512
#
#
#
# Elastic Compliance Matrix: (Units=1/GPa)
#
#
# Indices 1 2 3 4 5 6 
#
# 1 0.015020 -0.006214 0.000660 -0.000221 -0.004268 -0.000803
# 2 -0.006214 0.017446 -0.002840 0.000073 -0.000424 -0.007675
# 3 0.000660 -0.002840 0.012603 0.002252 -0.002771 0.001569
# 4 -0.000221 0.000073 0.002252 0.057966 -0.005235 -0.005227
# 5 -0.004268 -0.000424 -0.002771 -0.005235 0.020608 0.004170
# 6 -0.000803 -0.007675 0.001569 -0.005227 0.004170 0.032975
#
#
# Mechanical properties :
#
#
# Convention : Reuss Voigt Hill
#
# Bulk Modulus (GPa) = 35.35965 41.05114 38.20540
# Shear Modulus (GPa) = 27.34722 35.13464 31.24093
#
# Velocity S-wave (km/s) = 3.37745 3.82825 3.60990
# Velocity P-wave (km/s) = 5.47348 6.05509 5.77162
#
# Compressibility (1/GPa) = 0.02828082
#
# Stress axis : x y z
#
# Youngs Moduli (GPa) = 66.57610 57.31897 79.34762
#
# Poissons Ratio (x) = 0.35620 -0.05240
# Poissons Ratio (y) = 0.41373 0.22537
# Poissons Ratio (z) = -0.04396 0.16280
#
# Static dielectric constant tensor:
#      x y z
#    x 1.923520 -0.007000 -0.005230 
#    y -0.007000 1.904360 0.049310 
#    z -0.005230 0.049310 1.959820 
# 
# From -- ./inp_files/142275.got.cif
#   From: 2010.05.17/outbox.cif.g08.bks.cpg/sg2_72_cif.got.tgz:142275.got - 2010.06.03 11:33:40.
