data_PCOD9013913
_publ_section_title
;
Structure prediction by ZEFSAII (Michael W. Deem and Ramdas Pophale) SiO2 
 PCOD9013913
Probable space group: P -1
;
_chemical_formula_sum "Si O2"
_cell_formula_units_Z 16
_cell_length_a 13.377085
_cell_length_b 17.554862
_cell_length_c 8.362556
_cell_angle_alpha 120.787066
_cell_angle_beta 93.409724
_cell_angle_gamma 38.378928
_cell_volume 804.126641
_symmetry_space_group_name_H-M "P -1"
_symmetry_group_IT_number 2
_symmetry_cell_setting 'triclinic'
loop_
_space_group_symop_operation_xyz
x,y,z
-x,-y,-z
loop_
_atom_site_type_symbol
_atom_site_label
_atom_site_fract_x
_atom_site_fract_y
_atom_site_fract_z
Si Si1 0.180372 0.403839 0.024149
Si Si2 0.021505 0.721395 0.411882
Si Si3 0.588157 0.032591 0.520116
Si Si4 0.978629 0.031250 0.782312
Si Si5 0.631234 0.018321 0.137912
Si Si6 0.868270 0.967588 0.915548
Si Si7 0.205121 0.290966 0.237019
Si Si8 0.742294 0.304816 0.760827
O O1 0.107338 0.555296 0.244832
O O2 0.236106 0.297798 0.064982
O O3 0.392127 0.246755 0.774896
O O4 0.000000 0.500000 0.000000
O O5 0.164438 0.673164 0.261969
O O6 0.786181 0.895898 0.505593
O O7 0.004657 0.785425 0.647214
O O8 0.653489 0.004004 0.314704
O O9 0.500000 0.000000 0.500000
O O10 0.832220 0.066518 0.876794
O O11 0.871133 0.167688 0.776568
O O12 0.188331 0.818587 0.506383
O O13 0.020005 0.065638 0.968282
O O14 0.398286 0.167968 0.234708
O O15 0.675173 0.071100 0.095642
O O16 0.791658 0.817402 0.879053
O O17 0.000000 0.500000 0.500000
O O18 0.500000 0.500000 0.000000
#
# Coordination Sequence:
#
# PCOD9013913 Si02
#       8
#     2   2   2   2   2   2   2   2
#     4  12  23  39  62  90 126 170 216 258 312 371
#     4  11  24  40  64  96 126 169 214 261 315 380
#     4  12  23  41  64  88 127 171 213 263 310 373
#     4   9  21  43  67  93 127 162 204 264 324 371
#     4  11  23  38  59  87 121 161 208 252 313 369
#     4  10  21  41  66  90 126 166 207 261 317 379
#     4  11  23  37  57  85 121 162 202 258 305 366
#     4  10  22  42  69  97 128 160 212 263 315 382
#
# _framework density 19.897364
#
# number of rings (size 3 to 8) (size 9 to 14) (size 15 to 20)
#    0.000    1.250    2.500    3.000    1.750    5.000 
#    0.000   10.625    0.000    0.000    0.000    0.000 
#    0.000    0.000    0.000    0.000    0.000    0.000 
#
# Total GULP energy -89320.401640 kJ/mol
# GULP energy per Si atom -5582.525103 kJ/mol
# Density = 1.985208 g / cm^3
# Si number density = 19.897364 Si / 1000 Ang^3
#
#
#
# Elastic Constant Matrix: (Units=GPa)
#
#
# Indices 1 2 3 4 5 6 
#
# 1 89.1816 14.2826 32.7221 -8.0466 -1.9476 5.3109
# 2 14.2826 50.7239 26.2012 -0.8595 11.0220 2.6966
# 3 32.7221 26.2012 110.7276 1.2132 3.7309 -13.0379
# 4 -8.0466 -0.8595 1.2132 35.2379 -2.0658 -6.9723
# 5 -1.9476 11.0220 3.7309 -2.0658 35.4663 -5.9860
# 6 5.3109 2.6966 -13.0379 -6.9723 -5.9860 26.9264
#
#
#
# Elastic Compliance Matrix: (Units=1/GPa)
#
#
# Indices 1 2 3 4 5 6 
#
# 1 0.013441 -0.001743 -0.004041 0.002549 0.001264 -0.003492
# 2 -0.001743 0.025659 -0.006133 -0.001572 -0.008792 -0.007557
# 3 -0.004041 -0.006133 0.012549 0.000161 0.001708 0.007909
# 4 0.002549 -0.001572 0.000161 0.030839 0.003855 0.008575
# 5 0.001264 -0.008792 0.001708 0.003855 0.032683 0.009722
# 6 -0.003492 -0.007557 0.007909 0.008575 0.009722 0.046795
#
#
# Mechanical properties :
#
#
# Convention : Reuss Voigt Hill
#
# Bulk Modulus (GPa) = 35.95327 44.11610 40.03468
# Shear Modulus (GPa) = 25.63179 31.35460 28.49319
#
# Velocity S-wave (km/s) = 3.59304 3.97396 3.78829
# Velocity P-wave (km/s) = 5.94322 6.57849 6.26891
#
# Compressibility (1/GPa) = 0.02781388
#
# Stress axis : x y z
#
# Youngs Moduli (GPa) = 74.40178 38.97321 79.69052
#
# Poissons Ratio (x) = 0.06792 0.32205
# Poissons Ratio (y) = 0.12967 0.48873
# Poissons Ratio (z) = 0.30068 0.23902
#
# Static dielectric constant tensor:
#      x y z
#    x 1.729830 0.016220 -0.008600 
#    y 0.016220 1.663380 -0.031450 
#    z -0.008600 -0.031450 1.736280 
# 
# From -- ./inp_files/99923.got.cif
#   From: 2010.05.17/outbox.cif.g08.bks.cpg/sg2_50_cif.got.tgz:99923.got - 2010.06.03 11:33:40.
