data_PCOD9013301
_publ_section_title
;
Structure prediction by ZEFSAII (Michael W. Deem and Ramdas Pophale) SiO2 
 PCOD9013301
Probable space group: P -1
;
_chemical_formula_sum "Si O2"
_cell_formula_units_Z 16
_cell_length_a 6.056618
_cell_length_b 19.138104
_cell_length_c 8.732758
_cell_angle_alpha 93.355774
_cell_angle_beta 135.197014
_cell_angle_gamma 87.187221
_cell_volume 712.027503
_symmetry_space_group_name_H-M "P -1"
_symmetry_group_IT_number 2
_symmetry_cell_setting 'triclinic'
loop_
_space_group_symop_operation_xyz
x,y,z
-x,-y,-z
loop_
_atom_site_type_symbol
_atom_site_label
_atom_site_fract_x
_atom_site_fract_y
_atom_site_fract_z
Si Si1 0.528544 0.474222 0.684105
Si Si2 0.806387 0.603534 0.995751
Si Si3 0.486087 0.225520 0.623285
Si Si4 0.156566 0.852543 0.708270
Si Si5 0.480111 0.023975 0.169738
Si Si6 0.537095 0.275839 0.307361
Si Si7 0.838727 0.107064 0.926518
Si Si8 0.804876 0.645279 0.349436
O O1 0.500000 0.500000 0.500000
O O2 0.247158 0.423987 0.585129
O O3 0.844643 0.427651 0.851341
O O4 0.576573 0.541874 0.821721
O O5 0.750362 0.624503 0.145439
O O6 0.741528 0.672497 0.872529
O O7 0.497019 0.248578 0.455956
O O8 0.771757 0.175239 0.802181
O O9 0.438491 0.294725 0.709209
O O10 0.179443 0.179100 0.496428
O O11 0.236729 0.922510 0.661082
O O12 0.404682 0.791246 0.780168
O O13 0.167907 0.870306 0.895995
O O14 0.421366 0.954042 0.229253
O O15 0.167908 0.070746 0.045477
O O16 0.500000 0.000000 0.000000
O O17 0.852044 0.322095 0.460225
#
# Coordination Sequence:
#
# PCOD9013301 Si02
#       8
#     2   2   2   2   2   2   2   2
#     4  11  25  44  66  95 127 161 207 257 306 366
#     4  11  24  42  66  91 125 167 204 253 310 367
#     4  11  24  40  63  93 125 163 208 260 310 368
#     4  10  22  40  63  91 125 164 209 258 314 374
#     4   9  20  39  63  91 124 165 210 258 312 370
#     4  11  25  42  62  93 128 163 208 257 309 371
#     4  10  21  41  64  89 126 165 208 261 312 368
#     4  11  24  42  64  92 125 163 206 253 308 372
#
# _framework density 22.471042000000001
#
# number of rings (size 3 to 8) (size 9 to 14) (size 15 to 20)
#    0.000    1.500    0.000    4.125    0.000   14.500 
#    0.000    8.750    0.000    0.000    0.000    0.000 
#    0.000    0.000    0.000    0.000    0.000    0.000 
#
# Total GULP energy -89545.856281 kJ/mol
# GULP energy per Si atom -5596.616018 kJ/mol
# Density = 2.241990 g / cm^3
# Si number density = 22.471042 Si / 1000 Ang^3
#
#
#
# Elastic Constant Matrix: (Units=GPa)
#
#
# Indices 1 2 3 4 5 6 
#
# 1 87.2412 46.7867 17.8824 11.0254 -9.0549 -7.2188
# 2 46.7867 133.3332 38.5973 9.9627 -7.3667 -17.4736
# 3 17.8824 38.5973 44.6448 5.4215 -7.8166 -7.9912
# 4 11.0254 9.9627 5.4215 50.7392 4.9790 10.2176
# 5 -9.0549 -7.3667 -7.8166 4.9790 33.8330 11.2159
# 6 -7.2188 -17.4736 -7.9912 10.2176 11.2159 56.8062
#
#
#
# Elastic Compliance Matrix: (Units=1/GPa)
#
#
# Indices 1 2 3 4 5 6 
#
# 1 0.014740 -0.004446 -0.001190 -0.002539 0.003009 0.000201
# 2 -0.004446 0.011673 -0.008003 -0.000817 -0.001129 0.002270
# 3 -0.001190 -0.008003 0.031165 -0.002234 0.005080 0.001170
# 4 -0.002539 -0.000817 -0.002234 0.021815 -0.003198 -0.004181
# 5 0.003009 -0.001129 0.005080 -0.003198 0.033515 -0.005292
# 6 0.000201 0.002270 0.001170 -0.004181 -0.005292 0.020289
#
#
# Mechanical properties :
#
#
# Convention : Reuss Voigt Hill
#
# Bulk Modulus (GPa) = 33.00229 52.41688 42.70958
# Shear Modulus (GPa) = 29.31268 39.07254 34.19261
#
# Velocity S-wave (km/s) = 3.61566 4.17441 3.90504
# Velocity P-wave (km/s) = 5.67002 6.82725 6.27536
#
# Compressibility (1/GPa) = 0.03030093
#
# Stress axis : x y z
#
# Youngs Moduli (GPa) = 67.84122 85.66841 32.08745
#
# Poissons Ratio (x) = 0.38086 0.03817
# Poissons Ratio (y) = 0.30161 0.25680
# Poissons Ratio (z) = 0.08070 0.68563
#
# Static dielectric constant tensor:
#      x y z
#    x 1.815690 0.014270 0.051950 
#    y 0.014270 1.830350 0.016760 
#    z 0.051950 0.016760 1.811140 
# 
# From -- ./inp_files/48455.got.cif
#   From: 2010.05.17/outbox.cif.g08.bks.cpg/sg2_25_cif.got.tgz:48455.got - 2010.06.03 11:33:40.
