data_PCOD9013600
_publ_section_title
;
Structure prediction by ZEFSAII (Michael W. Deem and Ramdas Pophale) SiO2 
 PCOD9013600
Probable space group: P -1
;
_chemical_formula_sum "Si O2"
_cell_formula_units_Z 16
_cell_length_a 19.045135
_cell_length_b 8.447476
_cell_length_c 13.783653
_cell_angle_alpha 142.123827
_cell_angle_beta 31.613093
_cell_angle_gamma 139.232108
_cell_volume 688.228864
_symmetry_space_group_name_H-M "P -1"
_symmetry_group_IT_number 2
_symmetry_cell_setting 'triclinic'
loop_
_space_group_symop_operation_xyz
x,y,z
-x,-y,-z
loop_
_atom_site_type_symbol
_atom_site_label
_atom_site_fract_x
_atom_site_fract_y
_atom_site_fract_z
Si Si1 0.158032 0.314010 0.875611
Si Si2 0.239939 0.641539 0.265668
Si Si3 0.283278 0.040096 0.758102
Si Si4 0.928659 0.916142 0.828853
Si Si5 0.289231 0.264069 0.514713
Si Si6 0.754352 0.498408 0.583572
Si Si7 0.968477 0.723007 0.293775
Si Si8 0.495511 0.538712 0.798755
O O1 0.207183 0.229667 0.878584
O O2 0.288620 0.367006 0.674424
O O3 0.050302 0.062994 0.829455
O O4 0.075089 0.539260 0.084763
O O5 0.109383 0.402655 0.271038
O O6 0.256847 0.564408 0.320301
O O7 0.231460 0.943374 0.419127
O O8 0.369698 0.628837 0.038988
O O9 0.434555 0.225930 0.694309
O O10 0.263255 0.781333 0.589517
O O11 0.203222 0.991922 0.930893
O O12 0.957408 0.024842 0.738341
O O13 0.173868 0.381803 0.653356
O O14 0.434298 0.333795 0.321848
O O15 0.895567 0.703378 0.475611
O O16 0.622532 0.597841 0.753133
#
# Coordination Sequence:
#
# PCOD9013600 Si02
#       8
#     2   2   2   2   2   2   2   2
#     4  11  21  40  63  96 129 159 205 263 308 364
#     4  11  23  42  63  94 127 167 208 249 312 378
#     4  11  22  39  65  95 121 168 210 256 306 368
#     4  10  22  39  63  93 127 167 198 250 314 370
#     4  10  21  41  65  90 125 169 203 255 315 366
#     4  11  22  42  64  92 127 163 210 257 313 362
#     4  10  23  38  66  92 130 161 201 264 311 363
#     4  10  24  42  64  89 126 165 212 259 309 360
#
# _framework density 23.248080000000002
#
# number of rings (size 3 to 8) (size 9 to 14) (size 15 to 20)
#    0.000    1.500    2.500    3.000    1.750    3.000 
#    0.000    6.250    0.000    0.000    0.000    0.000 
#    0.000    0.000    0.000    0.000    0.000    0.000 
#
# Total GULP energy -89319.462560 kJ/mol
# GULP energy per Si atom -5582.466410 kJ/mol
# Density = 2.319517 g / cm^3
# Si number density = 23.248080 Si / 1000 Ang^3
#
#
#
# Elastic Constant Matrix: (Units=GPa)
#
#
# Indices 1 2 3 4 5 6 
#
# 1 72.3444 22.4991 30.3168 -8.1277 14.2537 -14.6205
# 2 22.4991 82.3757 44.6277 -31.7297 0.4031 -14.2020
# 3 30.3168 44.6277 98.9602 -17.3006 -2.1329 -17.2027
# 4 -8.1277 -31.7297 -17.3006 33.1987 -15.9416 7.0263
# 5 14.2537 0.4031 -2.1329 -15.9416 31.4632 5.0331
# 6 -14.6205 -14.2020 -17.2027 7.0263 5.0331 23.6166
#
#
#
# Elastic Compliance Matrix: (Units=1/GPa)
#
#
# Indices 1 2 3 4 5 6 
#
# 1 0.024689 -0.008999 -0.004507 -0.020546 -0.024658 0.017958
# 2 -0.008999 0.030057 -0.005170 0.036244 0.022810 -0.006907
# 3 -0.004507 -0.005170 0.015010 0.003105 0.004184 0.003218
# 4 -0.020546 0.036244 0.003105 0.098942 0.064272 -0.031797
# 5 -0.024658 0.022810 0.004184 0.064272 0.081094 -0.034905
# 6 0.017958 -0.006907 0.003218 -0.031797 -0.034905 0.068550
#
#
# Mechanical properties :
#
#
# Convention : Reuss Voigt Hill
#
# Bulk Modulus (GPa) = 30.86138 49.84083 40.35111
# Shear Modulus (GPa) = 13.64270 28.07149 20.85709
#
# Velocity S-wave (km/s) = 2.42509 3.47864 2.99850
# Velocity P-wave (km/s) = 4.59837 6.13350 5.42056
#
# Compressibility (1/GPa) = 0.03240296
#
# Stress axis : x y z
#
# Youngs Moduli (GPa) = 40.50305 33.27058 66.62219
#
# Poissons Ratio (x) = 0.29940 0.30028
# Poissons Ratio (y) = 0.36449 0.34446
# Poissons Ratio (z) = 0.18256 0.17202
#
# Static dielectric constant tensor:
#      x y z
#    x 1.846640 0.002040 0.007990 
#    y 0.002040 1.953520 -0.049200 
#    z 0.007990 -0.049200 1.911320 
# 
# From -- ./inp_files/319510.got.cif
#   From: 2010.05.17/outbox.cif.g08.bks.cpg/sg2_160_cif.got.tgz:319510.got - 2010.06.03 11:33:40.
