data_PCOD9013513
_publ_section_title
;
Structure prediction by ZEFSAII (Michael W. Deem and Ramdas Pophale) SiO2 
 PCOD9013513
Probable space group: P -1
;
_chemical_formula_sum "Si O2"
_cell_formula_units_Z 14
_cell_length_a 9.957869
_cell_length_b 12.395520
_cell_length_c 8.902384
_cell_angle_alpha 96.728836
_cell_angle_beta 74.485939
_cell_angle_gamma 146.920244
_cell_volume 565.829708
_symmetry_space_group_name_H-M "P -1"
_symmetry_group_IT_number 2
_symmetry_cell_setting 'triclinic'
loop_
_space_group_symop_operation_xyz
x,y,z
-x,-y,-z
loop_
_atom_site_type_symbol
_atom_site_label
_atom_site_fract_x
_atom_site_fract_y
_atom_site_fract_z
Si Si1 0.582332 0.064526 0.156072
Si Si2 0.429191 0.311814 0.952963
Si Si3 0.760459 0.795140 0.696075
Si Si4 0.264856 0.455102 0.407602
Si Si5 0.510463 0.797746 0.603032
Si Si6 0.945057 0.115315 0.118849
Si Si7 0.782472 0.262818 0.546094
O O1 0.602552 0.202575 0.227267
O O2 0.840000 0.167276 0.141816
O O3 0.541673 0.145975 0.500157
O O4 0.500000 0.000000 0.000000
O O5 0.625879 0.446218 0.776981
O O6 0.263329 0.094520 0.937949
O O7 0.457792 0.328740 0.127978
O O8 0.227276 0.280309 0.988997
O O9 0.688288 0.640860 0.600487
O O10 0.763817 0.906673 0.615801
O O11 0.007175 0.916930 0.741864
O O12 0.374118 0.604431 0.530773
O O13 0.959175 0.275974 0.459915
O O14 0.346748 0.848648 0.276452
O O15 0.000000 0.500000 0.500000
#
# Coordination Sequence:
#
# PCOD9013513 Si02
#       7
#     2   2   2   2   2   2   2
#     4  12  25  47  72 100 132 182 235 273 332 416
#     4   9  20  40  71  93 131 177 233 268 339 396
#     4  10  21  41  65 100 133 180 226 277 332 405
#     4  11  22  43  65  95 139 182 220 285 342 398
#     4  11  24  41  66 101 135 175 225 279 342 400
#     4   9  20  41  69  93 132 170 232 280 326 389
#     4  10  24  46  67  99 141 177 213 282 350 392
#
# _framework density 24.742426999999999
#
# number of rings (size 3 to 8) (size 9 to 14) (size 15 to 20)
#    0.857    0.857    0.000    4.714    0.000    1.143 
#    7.714    8.571    0.000    0.000    0.000    0.000 
#    0.000    0.000    0.000    0.000    0.000    0.000 
#
# Total GULP energy -77960.920299 kJ/mol
# GULP energy per Si atom -5568.637164 kJ/mol
# Density = 2.468611 g / cm^3
# Si number density = 24.742427 Si / 1000 Ang^3
#
#
#
# Elastic Constant Matrix: (Units=GPa)
#
#
# Indices 1 2 3 4 5 6 
#
# 1 219.5382 20.9801 81.0252 7.4285 -0.5038 14.4596
# 2 20.9801 77.5914 50.6340 -13.5757 4.9746 8.6528
# 3 81.0252 50.6340 162.0987 10.3106 -10.1372 2.3747
# 4 7.4285 -13.5757 10.3106 47.2516 -7.4116 -9.3495
# 5 -0.5038 4.9746 -10.1372 -7.4116 39.7609 5.0189
# 6 14.4596 8.6528 2.3747 -9.3495 5.0189 37.9173
#
#
#
# Elastic Compliance Matrix: (Units=1/GPa)
#
#
# Indices 1 2 3 4 5 6 
#
# 1 0.005788 0.000606 -0.003050 -0.000606 -0.000612 -0.002223
# 2 0.000606 0.018434 -0.006559 0.005776 -0.002609 -0.002257
# 3 -0.003050 -0.006559 0.010087 -0.003001 0.002676 0.000934
# 4 -0.000606 0.005776 -0.003001 0.024943 0.002533 0.004916
# 5 -0.000612 -0.002609 0.002676 0.002533 0.026911 -0.002276
# 6 -0.002223 -0.002257 0.000934 0.004916 -0.002276 0.029191
#
#
# Mechanical properties :
#
#
# Convention : Reuss Voigt Hill
#
# Bulk Modulus (GPa) = 61.33307 84.94522 73.13915
# Shear Modulus (GPa) = 36.02499 45.42524 40.72511
#
# Velocity S-wave (km/s) = 3.81990 4.28942 4.06145
# Velocity P-wave (km/s) = 6.65567 7.67714 7.18458
#
# Compressibility (1/GPa) = 0.01630442
#
# Stress axis : x y z
#
# Youngs Moduli (GPa) = 172.76559 54.24868 99.13995
#
# Poissons Ratio (x) = -0.03289 0.30235
# Poissons Ratio (y) = -0.10473 0.65021
# Poissons Ratio (z) = 0.52689 0.35579
#
# Static dielectric constant tensor:
#      x y z
#    x 1.804970 0.230800 -0.137350 
#    y 0.230800 1.738810 0.128900 
#    z -0.137350 0.128900 2.002520 
# 
# From -- ./inp_files/203070.got.cif
#   From: 2010.05.17/outbox.cif.g08.bks.cpg/sg2_102_cif.got.tgz:203070.got - 2010.06.03 11:33:40.
