data_PCOD9013810
_publ_section_title
;
Structure prediction by ZEFSAII (Michael W. Deem and Ramdas Pophale) SiO2 
 PCOD9013810
Probable space group: P -1
;
_chemical_formula_sum "Si O2"
_cell_formula_units_Z 14
_cell_length_a 24.025950
_cell_length_b 21.017979
_cell_length_c 5.028880
_cell_angle_alpha 49.329130
_cell_angle_beta 125.278888
_cell_angle_gamma 161.921968
_cell_volume 588.105666
_symmetry_space_group_name_H-M "P -1"
_symmetry_group_IT_number 2
_symmetry_cell_setting 'triclinic'
loop_
_space_group_symop_operation_xyz
x,y,z
-x,-y,-z
loop_
_atom_site_type_symbol
_atom_site_label
_atom_site_fract_x
_atom_site_fract_y
_atom_site_fract_z
Si Si1 0.424804 0.144422 0.302256
Si Si2 0.180026 0.395327 0.124273
Si Si3 0.736751 0.961552 0.370363
Si Si4 0.947534 0.579277 0.073258
Si Si5 0.915205 0.822772 0.021959
Si Si6 0.282403 0.255950 0.112943
Si Si7 0.830457 0.292440 0.294577
O O1 0.416663 0.185245 0.445156
O O2 0.339696 0.953815 0.618229
O O3 0.620295 0.371788 0.087158
O O4 0.302526 0.050737 0.998988
O O5 0.156673 0.317886 0.547925
O O6 0.126189 0.430664 0.921486
O O7 0.069816 0.217917 0.083672
O O8 0.761331 0.892039 0.583080
O O9 0.915246 0.211257 0.304840
O O10 0.794923 0.345811 0.159187
O O11 0.081820 0.666586 0.348781
O O12 0.769017 0.732406 0.842746
O O13 0.118736 0.092169 0.900362
O O14 0.500000 0.500000 0.000000
O O15 0.000000 0.500000 0.000000
#
# Coordination Sequence:
#
# PCOD9013810 Si02
#       7
#     2   2   2   2   2   2   2
#     4  11  24  41  70 100 137 176 234 278 336 416
#     4  12  25  47  67 101 139 183 219 284 349 402
#     4  11  23  43  68  98 130 186 226 275 339 414
#     4  10  23  40  68  93 135 177 221 275 346 402
#     4  11  28  46  68 105 145 177 231 291 337 407
#     4  11  24  46  73 103 139 184 231 284 345 407
#     4  10  21  41  65  98 131 174 229 283 329 411
#
# _framework density 23.805244999999999
#
# number of rings (size 3 to 8) (size 9 to 14) (size 15 to 20)
#    0.000    1.143    2.857    2.571    6.000    4.000 
#    0.000    5.714    0.000    0.000    0.000    0.000 
#    0.000    0.000    0.000    0.000    0.000    0.000 
#
# Total GULP energy -78085.107874 kJ/mol
# GULP energy per Si atom -5577.507705 kJ/mol
# Density = 2.375106 g / cm^3
# Si number density = 23.805245 Si / 1000 Ang^3
#
#
#
# Elastic Constant Matrix: (Units=GPa)
#
#
# Indices 1 2 3 4 5 6 
#
# 1 180.3800 30.1615 54.5401 -6.8753 21.3810 -7.8336
# 2 30.1615 65.6792 24.5824 -24.5314 5.6386 10.0336
# 3 54.5401 24.5824 102.2763 -17.4978 -0.0243 -6.1465
# 4 -6.8753 -24.5314 -17.4978 23.9531 -6.6182 -9.9049
# 5 21.3810 5.6386 -0.0243 -6.6182 48.0549 -3.9439
# 6 -7.8336 10.0336 -6.1465 -9.9049 -3.9439 35.7381
#
#
#
# Elastic Compliance Matrix: (Units=1/GPa)
#
#
# Indices 1 2 3 4 5 6 
#
# 1 0.007662 -0.003790 -0.004158 -0.005750 -0.003757 0.000020
# 2 -0.003790 0.026859 0.000114 0.026823 0.002173 -0.000678
# 3 -0.004158 0.000114 0.014526 0.012984 0.004092 0.005605
# 4 -0.005750 0.026823 0.012984 0.088780 0.013246 0.019509
# 5 -0.003757 0.002173 0.004092 0.013246 0.024516 0.005647
# 6 0.000020 -0.000678 0.005605 0.019509 0.005647 0.035170
#
#
# Mechanical properties :
#
#
# Convention : Reuss Voigt Hill
#
# Bulk Modulus (GPa) = 29.95898 62.98928 46.47413
# Shear Modulus (GPa) = 22.29081 37.48598 29.88839
#
# Velocity S-wave (km/s) = 3.06336 3.97255 3.54720
# Velocity P-wave (km/s) = 5.01244 6.89632 6.02842
#
# Compressibility (1/GPa) = 0.03337898
#
# Stress axis : x y z
#
# Youngs Moduli (GPa) = 130.51578 37.23173 68.84030
#
# Poissons Ratio (x) = 0.14112 0.28625
# Poissons Ratio (y) = 0.49470 -0.00788
# Poissons Ratio (z) = 0.54270 -0.00426
#
# Static dielectric constant tensor:
#      x y z
#    x 1.983880 -0.039800 0.010540 
#    y -0.039800 2.077120 -0.063880 
#    z 0.010540 -0.063880 1.990190 
# 
# From -- ./inp_files/124999.got.cif
#   From: 2010.05.17/outbox.cif.g08.bks.cpg/sg2_63_cif.got.tgz:124999.got - 2010.06.03 11:33:40.
