data_PCOD9013217
_publ_section_title
;
Structure prediction by ZEFSAII (Michael W. Deem and Ramdas Pophale) SiO2 
 PCOD9013217
Probable space group: P -1
;
_chemical_formula_sum "Si O2"
_cell_formula_units_Z 15
_cell_length_a 11.492795
_cell_length_b 15.036439
_cell_length_c 9.149979
_cell_angle_alpha 58.210263
_cell_angle_beta 106.673690
_cell_angle_gamma 152.779939
_cell_volume 543.628461
_symmetry_space_group_name_H-M "P -1"
_symmetry_group_IT_number 2
_symmetry_cell_setting 'triclinic'
loop_
_space_group_symop_operation_xyz
x,y,z
-x,-y,-z
loop_
_atom_site_type_symbol
_atom_site_label
_atom_site_fract_x
_atom_site_fract_y
_atom_site_fract_z
Si Si1 0.596703 0.943720 0.839311
Si Si2 0.000000 0.500000 0.500000
Si Si3 0.736855 0.732678 0.063874
Si Si4 0.636630 0.822543 0.719636
Si Si5 0.185421 0.730965 0.683459
Si Si6 0.653322 0.445742 0.738465
Si Si7 0.595440 0.847224 0.366704
Si Si8 0.016195 0.292565 0.912852
O O1 0.749295 0.003903 0.707237
O O2 0.300446 0.767800 0.842353
O O3 0.517579 0.785973 0.050880
O O4 0.825322 0.193897 0.795709
O O5 0.975669 0.449203 0.354210
O O6 0.668861 0.286969 0.563290
O O7 0.459105 0.541315 0.227278
O O8 0.826719 0.684079 0.124421
O O9 0.702825 0.763180 0.868788
O O10 0.000000 0.000000 0.000000
O O11 0.717311 0.893626 0.519439
O O12 0.289656 0.567736 0.832109
O O13 0.978019 0.666171 0.695811
O O14 0.500000 0.000000 0.500000
O O15 0.540014 0.349402 0.615587
O O16 0.816080 0.089953 0.142434
#
# Coordination Sequence:
#
# PCOD9013217 Si02
#       8
#     2   1   2   2   2   2   2   2
#     4  10  21  41  63  96 131 167 219 264 323 393
#     4  10  22  38  58  92 140 160 206 288 300 382
#     4  11  20  45  66  94 134 171 219 278 316 384
#     4  11  23  41  69  95 132 172 216 272 327 386
#     4  11  23  38  66  96 128 174 211 263 329 392
#     4   9  21  40  66  88 135 170 209 274 319 378
#     4  10  21  42  63  97 132 166 221 268 322 388
#     4  11  24  43  70  94 130 179 216 266 335 388
#
# _framework density 27.592374
#
# number of rings (size 3 to 8) (size 9 to 14) (size 15 to 20)
#    0.000    1.600    5.333    0.800    3.733    2.667 
#    0.000    1.333    2.933    0.000    0.000    0.000 
#    0.000    0.000    0.000    0.000    0.000    0.000 
#
# Total GULP energy -83840.337734 kJ/mol
# GULP energy per Si atom -5589.355849 kJ/mol
# Density = 2.752957 g / cm^3
# Si number density = 27.592374 Si / 1000 Ang^3
#
#
#
# Elastic Constant Matrix: (Units=GPa)
#
#
# Indices 1 2 3 4 5 6 
#
# 1 110.5695 33.1278 18.3704 6.2454 -30.2061 12.5554
# 2 33.1278 151.8801 35.3461 34.9413 -0.4879 -0.6960
# 3 18.3704 35.3461 102.4256 30.6704 -21.6328 9.9524
# 4 6.2454 34.9413 30.6704 60.9846 4.9459 -3.5197
# 5 -30.2061 -0.4879 -21.6328 4.9459 35.4671 -2.0379
# 6 12.5554 -0.6960 9.9524 -3.5197 -2.0379 50.2731
#
#
#
# Elastic Compliance Matrix: (Units=1/GPa)
#
#
# Indices 1 2 3 4 5 6 
#
# 1 0.013659 -0.003010 0.002334 -0.002115 0.013107 -0.003532
# 2 -0.003010 0.008469 -0.002259 -0.003081 -0.003340 0.000965
# 3 0.002334 -0.002259 0.015452 -0.007926 0.012272 -0.003731
# 4 -0.002115 -0.003081 -0.007926 0.023346 -0.009744 0.003294
# 5 0.013107 -0.003340 0.012272 -0.009744 0.047898 -0.004490
# 6 -0.003532 0.000965 -0.003731 0.003294 -0.004490 0.021574
#
#
# Mechanical properties :
#
#
# Convention : Reuss Voigt Hill
#
# Bulk Modulus (GPa) = 31.53664 59.84042 45.68853
# Shear Modulus (GPa) = 34.05066 47.88037 40.96551
#
# Velocity S-wave (km/s) = 3.51673 4.17018 3.85732
# Velocity P-wave (km/s) = 5.28622 6.70236 6.03597
#
# Compressibility (1/GPa) = 0.03170915
#
# Stress axis : x y z
#
# Youngs Moduli (GPa) = 73.20988 118.07718 64.71571
#
# Poissons Ratio (x) = 0.35541 -0.15102
# Poissons Ratio (y) = 0.22036 0.14621
# Poissons Ratio (z) = -0.17084 0.26676
#
# Static dielectric constant tensor:
#      x y z
#    x 2.103940 -0.034070 0.009540 
#    y -0.034070 2.281870 0.128420 
#    z 0.009540 0.128420 2.238150 
# 
# From -- ./inp_files/319305.got.cif
#   From: 2010.05.17/outbox.cif.g08.bks.cpg/sg2_160_cif.got.tgz:319305.got - 2010.06.03 11:33:40.
