data_PCOD9013324
_publ_section_title
;
Structure prediction by ZEFSAII (Michael W. Deem and Ramdas Pophale) SiO2 
 PCOD9013324
Probable space group: P -1
;
_chemical_formula_sum "Si O2"
_cell_formula_units_Z 16
_cell_length_a 9.130212
_cell_length_b 11.710475
_cell_length_c 9.663615
_cell_angle_alpha 88.009918
_cell_angle_beta 45.838840
_cell_angle_gamma 94.228685
_cell_volume 733.828071
_symmetry_space_group_name_H-M "P -1"
_symmetry_group_IT_number 2
_symmetry_cell_setting 'triclinic'
loop_
_space_group_symop_operation_xyz
x,y,z
-x,-y,-z
loop_
_atom_site_type_symbol
_atom_site_label
_atom_site_fract_x
_atom_site_fract_y
_atom_site_fract_z
Si Si1 0.407877 0.399083 0.664364
Si Si2 0.356905 0.407875 0.004559
Si Si3 0.224338 0.236638 0.569426
Si Si4 0.944381 0.625936 0.564900
Si Si5 0.623708 0.107813 0.332192
Si Si6 0.545183 0.851643 0.049331
Si Si7 0.804091 0.072313 0.917875
Si Si8 0.709199 0.217516 0.541201
O O1 0.500000 0.500000 0.500000
O O2 0.238955 0.312869 0.696840
O O3 0.588529 0.323565 0.579953
O O4 0.343452 0.443052 0.853117
O O5 0.142517 0.390369 0.223541
O O6 0.500000 0.500000 0.000000
O O7 0.428889 0.281870 0.967953
O O8 0.200176 0.325384 0.455971
O O9 0.438850 0.183496 0.413912
O O10 0.025415 0.138839 0.722825
O O11 0.000000 0.500000 0.500000
O O12 0.125087 0.730764 0.458786
O O13 0.758601 0.084284 0.111175
O O14 0.766893 0.169328 0.358474
O O15 0.500000 0.000000 0.500000
O O16 0.444567 0.873005 0.264310
O O17 0.757438 0.938882 0.904009
O O18 0.384860 0.876758 0.036541
#
# Coordination Sequence:
#
# PCOD9013324 Si02
#       8
#     2   2   2   2   2   2   2   2
#     4  10  22  44  64  96 135 174 222 282 339 400
#     4  11  24  41  70  95 134 182 224 281 350 403
#     4  11  25  43  70 103 136 178 230 285 340 411
#     4  12  24  44  67  98 131 177 232 285 337 410
#     4  11  24  43  65  99 138 180 216 278 346 400
#     4  10  21  44  63 101 131 179 221 281 337 405
#     4  11  23  41  72  96 141 175 229 278 342 413
#     4  10  21  41  64  90 136 168 218 276 334 399
#
# _framework density 21.803473
#
# number of rings (size 3 to 8) (size 9 to 14) (size 15 to 20)
#    0.000    1.250    2.500    3.750    1.750    2.500 
#    0.000    3.750    0.000    0.000    0.000    0.000 
#    0.000    0.000    0.000    0.000    0.000    0.000 
#
# Total GULP energy -89293.448266 kJ/mol
# GULP energy per Si atom -5580.840517 kJ/mol
# Density = 2.175385 g / cm^3
# Si number density = 21.803473 Si / 1000 Ang^3
#
#
#
# Elastic Constant Matrix: (Units=GPa)
#
#
# Indices 1 2 3 4 5 6 
#
# 1 76.5581 30.0466 3.3040 3.3699 18.2828 4.8336
# 2 30.0466 90.3674 12.1147 -13.3466 8.2148 15.4558
# 3 3.3040 12.1147 77.6085 -3.7478 22.3754 4.2106
# 4 3.3699 -13.3466 -3.7478 29.5219 7.0666 3.0035
# 5 18.2828 8.2148 22.3754 7.0666 38.0495 -9.1744
# 6 4.8336 15.4558 4.2106 3.0035 -9.1744 41.1251
#
#
#
# Elastic Compliance Matrix: (Units=1/GPa)
#
#
# Indices 1 2 3 4 5 6 
#
# 1 0.017350 -0.005142 0.002741 -0.001542 -0.009108 -0.002307
# 2 -0.005142 0.015762 -0.000188 0.009409 -0.004241 -0.006933
# 3 0.002741 -0.000188 0.017379 0.005698 -0.013892 -0.005546
# 4 -0.001542 0.009409 0.005698 0.043765 -0.015313 -0.010551
# 5 -0.009108 -0.004241 -0.013892 -0.015313 0.046334 0.015542
# 6 -0.002307 -0.006933 -0.005546 -0.010551 0.015542 0.031998
#
#
# Mechanical properties :
#
#
# Convention : Reuss Voigt Hill
#
# Bulk Modulus (GPa) = 22.06883 37.27385 29.67134
# Shear Modulus (GPa) = 25.92401 35.01053 30.46727
#
# Velocity S-wave (km/s) = 3.45191 4.01151 3.74218
# Velocity P-wave (km/s) = 5.10208 6.21198 5.68419
#
# Compressibility (1/GPa) = 0.04531278
#
# Stress axis : x y z
#
# Youngs Moduli (GPa) = 57.63617 63.44472 57.54060
#
# Poissons Ratio (x) = 0.32620 -0.15770
# Poissons Ratio (y) = 0.29634 0.01083
# Poissons Ratio (z) = -0.15796 0.01194
#
# Static dielectric constant tensor:
#      x y z
#    x 1.753480 -0.060360 0.095640 
#    y -0.060360 1.760990 0.083520 
#    z 0.095640 0.083520 1.783340 
# 
# From -- ./inp_files/187059.got.cif
#   From: 2010.05.17/outbox.cif.g08.bks.cpg/sg2_94_cif.got.tgz:187059.got - 2010.06.03 11:33:40.
