data_PCOD9013893
_publ_section_title
;
Structure prediction by ZEFSAII (Michael W. Deem and Ramdas Pophale) SiO2 
 PCOD9013893
Probable space group: P -1
;
_chemical_formula_sum "Si O2"
_cell_formula_units_Z 16
_cell_length_a 16.608642
_cell_length_b 9.220676
_cell_length_c 17.228839
_cell_angle_alpha 149.343578
_cell_angle_beta 147.335872
_cell_angle_gamma 41.704559
_cell_volume 723.683956
_symmetry_space_group_name_H-M "P -1"
_symmetry_group_IT_number 2
_symmetry_cell_setting 'triclinic'
loop_
_space_group_symop_operation_xyz
x,y,z
-x,-y,-z
loop_
_atom_site_type_symbol
_atom_site_label
_atom_site_fract_x
_atom_site_fract_y
_atom_site_fract_z
Si Si1 0.422336 0.219004 0.471242
Si Si2 0.712559 0.982954 0.538397
Si Si3 0.137188 0.505618 0.030528
Si Si4 0.918708 0.715418 0.818961
Si Si5 0.451226 0.335778 0.121472
Si Si6 0.591322 0.488268 0.145975
Si Si7 0.068624 0.452913 0.411805
Si Si8 0.128879 0.888791 0.792027
O O1 0.547045 0.135679 0.469543
O O2 0.259404 0.206588 0.296233
O O3 0.446497 0.528653 0.667946
O O4 0.500000 0.000000 0.500000
O O5 0.704653 0.743859 0.355393
O O6 0.775384 0.753550 0.550401
O O7 0.811506 0.242342 0.756819
O O8 0.992801 0.594243 0.901794
O O9 0.107752 0.224099 0.923563
O O10 0.280736 0.421214 0.050652
O O11 0.960677 0.507530 0.684081
O O12 0.000000 0.000000 0.000000
O O13 0.489217 0.485482 0.139178
O O14 0.500000 0.000000 0.000000
O O15 0.696338 0.198740 0.100145
O O16 0.500000 0.500000 0.000000
O O17 0.079645 0.734607 0.601597
O O18 0.954347 0.260556 0.274590
#
# Coordination Sequence:
#
# PCOD9013893 Si02
#       8
#     2   2   2   2   2   2   2   2
#     4  11  19  39  68  91 126 165 209 263 320 371
#     4  10  21  42  67  89 128 172 208 266 324 383
#     4  11  24  40  68  97 130 165 220 270 327 372
#     4  12  23  37  65 105 121 163 222 270 307 391
#     4  11  22  41  67  93 130 168 206 265 329 376
#     4  11  23  40  67  94 125 171 218 256 314 397
#     4  10  21  41  66  88 128 171 216 253 325 388
#     4  10  23  43  62  91 131 178 202 263 336 377
#
# _framework density 22.109096999999998
#
# number of rings (size 3 to 8) (size 9 to 14) (size 15 to 20)
#    0.000    1.250    5.000    1.500    1.750    1.000 
#    0.000    0.625    0.000    0.000    0.000    0.000 
#    0.000    0.000    0.000    0.000    0.000    0.000 
#
# Total GULP energy -89210.141099 kJ/mol
# GULP energy per Si atom -5575.633819 kJ/mol
# Density = 2.205878 g / cm^3
# Si number density = 22.109097 Si / 1000 Ang^3
#
#
#
# Elastic Constant Matrix: (Units=GPa)
#
#
# Indices 1 2 3 4 5 6 
#
# 1 76.2874 29.5632 21.8397 -19.7728 10.6545 -10.1907
# 2 29.5632 91.3268 85.3878 -3.3141 0.6315 -7.6861
# 3 21.8397 85.3878 136.0489 -6.3301 -4.6543 -1.6335
# 4 -19.7728 -3.3141 -6.3301 53.8777 -10.0914 2.1151
# 5 10.6545 0.6315 -4.6543 -10.0914 28.2408 -9.6519
# 6 -10.1907 -7.6861 -1.6335 2.1151 -9.6519 29.5115
#
#
#
# Elastic Compliance Matrix: (Units=1/GPa)
#
#
# Indices 1 2 3 4 5 6 
#
# 1 0.017503 -0.006624 0.001527 0.005473 -0.003239 0.002952
# 2 -0.006624 0.030206 -0.018001 -0.002989 -0.000643 0.004587
# 3 0.001527 -0.018001 0.018580 0.002271 0.002898 -0.002348
# 4 0.005473 -0.002989 0.002271 0.021858 0.006839 0.001907
# 5 -0.003239 -0.000643 0.002898 0.006839 0.043925 0.012750
# 6 0.002952 0.004587 -0.002348 0.001907 0.012750 0.040002
#
#
# Mechanical properties :
#
#
# Convention : Reuss Voigt Hill
#
# Bulk Modulus (GPa) = 49.76824 64.13827 56.95325
# Shear Modulus (GPa) = 22.22526 33.45083 27.83804
#
# Velocity S-wave (km/s) = 3.17401 3.89394 3.55226
# Velocity P-wave (km/s) = 5.99930 7.02067 6.52999
#
# Compressibility (1/GPa) = 0.02009314
#
# Stress axis : x y z
#
# Youngs Moduli (GPa) = 57.13145 33.10556 53.82250
#
# Poissons Ratio (x) = 0.21930 -0.08219
# Poissons Ratio (y) = 0.37846 0.96885
# Poissons Ratio (z) = -0.08725 0.59593
#
# Static dielectric constant tensor:
#      x y z
#    x 2.026310 -0.010590 0.044630 
#    y -0.010590 1.824740 -0.002190 
#    z 0.044630 -0.002190 1.838000 
# 
# From -- ./inp_files/299018.got.cif
#   From: 2010.05.17/outbox.cif.g08.bks.cpg/sg2_150_cif.got.tgz:299018.got - 2010.06.03 11:33:40.
