data_PCOD9013940
_publ_section_title
;
Structure prediction by ZEFSAII (Michael W. Deem and Ramdas Pophale) SiO2 
 PCOD9013940
Probable space group: P -1
;
_chemical_formula_sum "Si O2"
_cell_formula_units_Z 16
_cell_length_a 18.554574
_cell_length_b 13.945442
_cell_length_c 25.389784
_cell_angle_alpha 160.308823
_cell_angle_beta 18.590719
_cell_angle_gamma 151.093029
_cell_volume 696.842198
_symmetry_space_group_name_H-M "P -1"
_symmetry_group_IT_number 2
_symmetry_cell_setting 'triclinic'
loop_
_space_group_symop_operation_xyz
x,y,z
-x,-y,-z
loop_
_atom_site_type_symbol
_atom_site_label
_atom_site_fract_x
_atom_site_fract_y
_atom_site_fract_z
Si Si1 0.501118 0.682770 0.812525
Si Si2 0.679559 0.511827 0.058292
Si Si3 0.108252 0.712255 0.808419
Si Si4 0.213384 0.743479 0.466594
Si Si5 0.976108 0.470922 0.411709
Si Si6 0.252768 0.073324 0.354243
Si Si7 0.150867 0.705624 0.974729
Si Si8 0.674078 0.107774 0.151600
O O1 0.366338 0.509102 0.858248
O O2 0.768509 0.550056 0.556811
O O3 0.366978 0.710435 0.865234
O O4 0.500000 0.000000 0.000000
O O5 0.479700 0.744268 0.290828
O O6 0.913803 0.612997 0.930330
O O7 0.656179 0.192981 0.886234
O O8 0.200712 0.420376 0.561423
O O9 0.308224 0.784701 0.746031
O O10 0.000000 0.000000 0.000000
O O11 0.167474 0.517826 0.427597
O O12 0.153670 0.678102 0.414098
O O13 0.029440 0.004264 0.747532
O O14 0.136126 0.179817 0.133739
O O15 0.432810 0.042015 0.262103
O O16 0.000000 0.000000 0.500000
O O17 0.241210 0.672649 0.835843
O O18 0.000000 0.500000 0.000000
#
# Coordination Sequence:
#
# PCOD9013940 Si02
#       8
#     2   2   2   2   2   2   2   2
#     4  11  20  34  62 101 132 158 203 247 308 401
#     4  10  21  41  66  91 130 169 204 266 315 367
#     4  11  26  45  64  90 123 167 227 273 315 365
#     4   9  17  35  58  89 127 160 196 241 306 388
#     4   9  18  33  60  92 121 160 198 240 310 386
#     4  10  22  43  68  91 118 167 225 270 314 367
#     4  11  23  36  58  99 135 162 198 242 317 406
#     4  11  22  42  67  86 126 171 200 266 330 360
#
# _framework density 22.960722000000001
#
# number of rings (size 3 to 8) (size 9 to 14) (size 15 to 20)
#    0.000    1.750    2.500    1.875    0.000    4.000 
#    0.000    8.750    0.000    0.000    0.000    0.000 
#    0.000    0.000    0.000    0.000    0.000    0.000 
#
# Total GULP energy -89162.542103 kJ/mol
# GULP energy per Si atom -5572.658881 kJ/mol
# Density = 2.290846 g / cm^3
# Si number density = 22.960722 Si / 1000 Ang^3
#
#
#
# Elastic Constant Matrix: (Units=GPa)
#
#
# Indices 1 2 3 4 5 6 
#
# 1 115.0476 26.8343 39.4423 -5.3208 -11.3411 5.4975
# 2 26.8343 63.4667 26.3590 -4.6709 -7.1414 6.0213
# 3 39.4423 26.3590 142.3435 -10.9812 -21.3861 3.0116
# 4 -5.3208 -4.6709 -10.9812 37.1762 8.7669 -5.7311
# 5 -11.3411 -7.1414 -21.3861 8.7669 30.4140 -2.3860
# 6 5.4975 6.0213 3.0116 -5.7311 -2.3860 21.9620
#
#
#
# Elastic Compliance Matrix: (Units=1/GPa)
#
#
# Indices 1 2 3 4 5 6 
#
# 1 0.010353 -0.003249 -0.002005 -0.000096 0.001616 -0.001275
# 2 -0.003249 0.018581 -0.002259 0.000348 0.001168 -0.003754
# 3 -0.002005 -0.002259 0.008761 0.001030 0.004640 0.000693
# 4 -0.000096 0.000348 0.001030 0.030017 -0.007347 0.006822
# 5 0.001616 0.001168 0.004640 -0.007347 0.039214 0.000982
# 6 -0.001275 -0.003754 0.000693 0.006822 0.000982 0.048674
#
#
# Mechanical properties :
#
#
# Convention : Reuss Voigt Hill
#
# Bulk Modulus (GPa) = 44.11093 56.23655 50.17374
# Shear Modulus (GPa) = 28.06119 33.12527 30.59323
#
# Velocity S-wave (km/s) = 3.49970 3.80240 3.65419
# Velocity P-wave (km/s) = 5.96521 6.61992 6.30107
#
# Compressibility (1/GPa) = 0.02267012
#
# Stress axis : x y z
#
# Youngs Moduli (GPa) = 96.59099 53.81748 114.14281
#
# Poissons Ratio (x) = 0.17485 0.22883
# Poissons Ratio (y) = 0.31382 0.25782
# Poissons Ratio (z) = 0.19364 0.12156
#
# Static dielectric constant tensor:
#      x y z
#    x 2.044400 -0.203140 0.009330 
#    y -0.203140 2.268050 -0.048140 
#    z 0.009330 -0.048140 1.847080 
# 
# From -- ./inp_files/620443.got.cif
#   From: 2010.05.17/outbox.cif.g08.bks.cpg/sg2_311_cif.got.tgz:620443.got - 2010.06.03 11:33:40.
