data_PCOD9013553
_publ_section_title
;
Structure prediction by ZEFSAII (Michael W. Deem and Ramdas Pophale) SiO2 
 PCOD9013553
Probable space group: P -1
;
_chemical_formula_sum "Si O2"
_cell_formula_units_Z 16
_cell_length_a 9.831149
_cell_length_b 8.955897
_cell_length_c 11.285471
_cell_angle_alpha 40.476184
_cell_angle_beta 108.391218
_cell_angle_gamma 113.613827
_cell_volume 590.902777
_symmetry_space_group_name_H-M "P -1"
_symmetry_group_IT_number 2
_symmetry_cell_setting 'triclinic'
loop_
_space_group_symop_operation_xyz
x,y,z
-x,-y,-z
loop_
_atom_site_type_symbol
_atom_site_label
_atom_site_fract_x
_atom_site_fract_y
_atom_site_fract_z
Si Si1 0.645910 0.099160 0.400247
Si Si2 0.165345 0.153739 0.070756
Si Si3 0.348244 0.576672 0.421825
Si Si4 0.905406 0.269048 0.043358
Si Si5 0.352613 0.581103 0.019384
Si Si6 0.848055 0.339172 0.504525
Si Si7 0.849425 0.868113 0.469472
Si Si8 0.603390 0.912963 0.983128
O O1 0.617362 0.229363 0.194922
O O2 0.792541 0.274883 0.394923
O O3 0.500000 0.000000 0.500000
O O4 0.711964 0.886595 0.502311
O O5 0.231730 0.123529 0.977544
O O6 0.011733 0.232270 0.988948
O O7 0.148174 0.911138 0.284387
O O8 0.278277 0.339379 0.077563
O O9 0.500000 0.500000 0.500000
O O10 0.285002 0.557830 0.547147
O O11 0.205462 0.407483 0.416201
O O12 0.381408 0.854420 0.235161
O O13 0.751932 0.343386 0.955590
O O14 0.864127 0.030751 0.256965
O O15 0.000000 0.500000 0.000000
O O16 0.509643 0.645259 0.086390
O O17 0.000000 0.500000 0.500000
O O18 0.000000 0.000000 0.500000
O O19 0.500000 0.000000 0.000000
#
# Coordination Sequence:
#
# PCOD9013553 Si02
#       8
#     2   2   2   2   2   2   2   2
#     4  11  22  39  64  92 122 164 210 254 306 373
#     4  10  21  41  65  88 122 166 208 255 311 377
#     4  11  23  41  61  88 128 165 202 256 315 369
#     4   9  19  37  61  85 116 155 201 256 300 353
#     4  10  22  42  64  91 123 163 215 258 305 377
#     4  11  23  40  63  95 129 160 204 260 315 368
#     4  11  22  37  61  91 121 161 208 251 302 369
#     4  11  25  41  61  92 127 164 207 262 318 368
#
# _framework density 27.077210000000001
#
# number of rings (size 3 to 8) (size 9 to 14) (size 15 to 20)
#    0.000    1.500    0.000    6.375    0.000    5.000 
#    0.000    6.250    0.000    0.000    0.000    0.000 
#    0.000    0.000    0.000    0.000    0.000    0.000 
#
# Total GULP energy -89241.694220 kJ/mol
# GULP energy per Si atom -5577.605889 kJ/mol
# Density = 2.701558 g / cm^3
# Si number density = 27.077210 Si / 1000 Ang^3
#
#
#
# Elastic Constant Matrix: (Units=GPa)
#
#
# Indices 1 2 3 4 5 6 
#
# 1 216.5368 53.6141 17.5651 -12.4085 -7.6514 -36.1748
# 2 53.6141 132.2255 32.0512 -39.0522 -14.2073 22.2191
# 3 17.5651 32.0512 99.6267 -21.9950 -20.5962 10.4474
# 4 -12.4085 -39.0522 -21.9950 43.0319 3.7823 -19.3594
# 5 -7.6514 -14.2073 -20.5962 3.7823 26.9681 -9.9918
# 6 -36.1748 22.2191 10.4474 -19.3594 -9.9918 69.7098
#
#
#
# Elastic Compliance Matrix: (Units=1/GPa)
#
#
# Indices 1 2 3 4 5 6 
#
# 1 0.006227 -0.002738 -0.000053 0.001245 0.001859 0.004724
# 2 -0.002738 0.012061 -0.000652 0.008488 0.003007 -0.002379
# 3 -0.000053 -0.000652 0.013405 0.005942 0.009483 0.001181
# 4 0.001245 0.008488 0.005942 0.037530 0.007253 0.008513
# 5 0.001859 0.003007 0.009483 0.007253 0.048200 0.007508
# 6 0.004724 -0.002379 0.001181 0.008513 0.007508 0.020818
#
#
# Mechanical properties :
#
#
# Convention : Reuss Voigt Hill
#
# Bulk Modulus (GPa) = 40.31307 72.76109 56.53708
# Shear Modulus (GPa) = 32.59519 50.95253 41.77386
#
# Velocity S-wave (km/s) = 3.47333 4.34262 3.93207
# Velocity P-wave (km/s) = 5.56829 7.21627 6.44517
#
# Compressibility (1/GPa) = 0.02480585
#
# Stress axis : x y z
#
# Youngs Moduli (GPa) = 160.59735 82.91196 74.59760
#
# Poissons Ratio (x) = 0.22703 0.00395
# Poissons Ratio (y) = 0.43975 0.04867
# Poissons Ratio (z) = 0.00851 0.05409
#
# Static dielectric constant tensor:
#      x y z
#    x 2.215350 0.012690 0.010810 
#    y 0.012690 2.140200 0.026340 
#    z 0.010810 0.026340 2.079170 
# 
# From -- ./inp_files/494298.got.cif
#   From: 2010.05.17/outbox.cif.g08.bks.cpg/sg2_248_cif.got.tgz:494298.got - 2010.06.03 11:33:40.
