data_PCOD9013938
_publ_section_title
;
Structure prediction by ZEFSAII (Michael W. Deem and Ramdas Pophale) SiO2 
 PCOD9013938
Probable space group: P -1
;
_chemical_formula_sum "Si O2"
_cell_formula_units_Z 16
_cell_length_a 11.392162
_cell_length_b 8.491057
_cell_length_c 22.067805
_cell_angle_alpha 51.880291
_cell_angle_beta 31.595806
_cell_angle_gamma 40.370772
_cell_volume 721.266306
_symmetry_space_group_name_H-M "P -1"
_symmetry_group_IT_number 2
_symmetry_cell_setting 'triclinic'
loop_
_space_group_symop_operation_xyz
x,y,z
-x,-y,-z
loop_
_atom_site_type_symbol
_atom_site_label
_atom_site_fract_x
_atom_site_fract_y
_atom_site_fract_z
Si Si1 0.822060 0.526629 0.628557
Si Si2 0.270891 0.655940 0.851170
Si Si3 0.762054 0.227873 0.466444
Si Si4 0.680838 0.971478 0.670473
Si Si5 0.353130 0.367025 0.008001
Si Si6 0.092612 0.108955 0.143222
Si Si7 0.229401 0.011941 0.605067
Si Si8 0.093018 0.124061 0.883380
O O1 0.563271 0.528887 0.721526
O O2 0.746641 0.754825 0.647776
O O3 0.000000 0.500000 0.500000
O O4 0.991985 0.293469 0.651313
O O5 0.308998 0.507907 0.930166
O O6 0.037462 0.699956 0.899783
O O7 0.186956 0.933089 0.832916
O O8 0.500000 0.500000 0.500000
O O9 0.776871 0.066175 0.442318
O O10 0.073005 0.151460 0.359223
O O11 0.695228 0.159424 0.576764
O O12 0.362003 0.099164 0.797562
O O13 0.676983 0.162361 0.918216
O O14 0.235781 0.201959 0.099680
O O15 0.161969 0.597704 0.081384
O O16 0.849941 0.125398 0.282338
O O17 0.500000 0.000000 0.500000
O O18 0.000000 0.000000 0.000000
#
# Coordination Sequence:
#
# PCOD9013938 Si02
#       8
#     2   2   2   2   2   2   2   2
#     4  11  20  40  64  93 127 166 213 262 314 386
#     4  10  21  41  66  91 127 166 210 261 318 381
#     4  11  25  44  65  98 132 167 213 268 330 389
#     4  10  23  44  68  93 131 172 212 267 327 386
#     4  10  22  44  61  92 131 161 218 261 315 391
#     4  11  24  40  65  95 126 167 208 268 326 376
#     4  12  25  42  66  98 129 168 220 269 325 389
#     4   9  21  42  66  94 124 168 218 259 314 383
#
# _framework density 22.183208
#
# number of rings (size 3 to 8) (size 9 to 14) (size 15 to 20)
#    0.000    1.500    2.500    1.875    3.500    1.500 
#    9.000    0.000    0.000    0.000    0.000    0.000 
#    0.000    0.000    0.000    0.000    0.000    0.000 
#
# Total GULP energy -89187.057915 kJ/mol
# GULP energy per Si atom -5574.191120 kJ/mol
# Density = 2.213272 g / cm^3
# Si number density = 22.183208 Si / 1000 Ang^3
#
#
#
# Elastic Constant Matrix: (Units=GPa)
#
#
# Indices 1 2 3 4 5 6 
#
# 1 70.9508 0.3263 30.7473 4.2650 -22.3310 -16.6530
# 2 0.3263 90.2224 21.5013 6.5282 -8.2022 -17.4227
# 3 30.7473 21.5013 118.5443 7.3932 -22.6646 -6.6115
# 4 4.2650 6.5282 7.3932 26.9422 -4.0967 0.1471
# 5 -22.3310 -8.2022 -22.6646 -4.0967 29.1383 0.9468
# 6 -16.6530 -17.4227 -6.6115 0.1471 0.9468 34.4093
#
#
#
# Elastic Compliance Matrix: (Units=1/GPa)
#
#
# Indices 1 2 3 4 5 6 
#
# 1 0.023681 0.004730 -0.003033 -0.001627 0.016475 0.012826
# 2 0.004730 0.013947 -0.002086 -0.002806 0.005247 0.008817
# 3 -0.003033 -0.002086 0.010635 -0.001135 0.005221 -0.000620
# 4 -0.001627 -0.002806 -0.001135 0.038778 0.002618 -0.002664
# 5 0.016475 0.005247 0.005221 0.002618 0.052520 0.010177
# 6 0.012826 0.008817 -0.000620 -0.002664 0.010177 0.039346
#
#
# Mechanical properties :
#
#
# Convention : Reuss Voigt Hill
#
# Bulk Modulus (GPa) = 21.06063 42.76303 31.91183
# Shear Modulus (GPa) = 25.57351 33.24080 29.40716
#
# Velocity S-wave (km/s) = 3.39902 3.87520 3.64490
# Velocity P-wave (km/s) = 4.99190 6.27232 5.66838
#
# Compressibility (1/GPa) = 0.04748195
#
# Stress axis : x y z
#
# Youngs Moduli (GPa) = 42.22877 71.70233 94.02639
#
# Poissons Ratio (x) = -0.33912 0.28521
# Poissons Ratio (y) = -0.19972 0.19618
# Poissons Ratio (z) = 0.12809 0.14961
#
# Static dielectric constant tensor:
#      x y z
#    x 1.887340 0.043130 -0.053060 
#    y 0.043130 1.884950 -0.036640 
#    z -0.053060 -0.036640 1.913610 
# 
# From -- ./inp_files/348341.got.cif
#   From: 2010.05.17/outbox.cif.g08.bks.cpg/sg2_175_cif.got.tgz:348341.got - 2010.06.03 11:33:40.
