data_PCOD9013924
_publ_section_title
;
Structure prediction by ZEFSAII (Michael W. Deem and Ramdas Pophale) SiO2 
 PCOD9013924
Probable space group: P -1
;
_chemical_formula_sum "Si O2"
_cell_formula_units_Z 16
_cell_length_a 8.883923
_cell_length_b 10.668456
_cell_length_c 12.498814
_cell_angle_alpha 136.581125
_cell_angle_beta 104.014412
_cell_angle_gamma 59.658870
_cell_volume 686.979114
_symmetry_space_group_name_H-M "P -1"
_symmetry_group_IT_number 2
_symmetry_cell_setting 'triclinic'
loop_
_space_group_symop_operation_xyz
x,y,z
-x,-y,-z
loop_
_atom_site_type_symbol
_atom_site_label
_atom_site_fract_x
_atom_site_fract_y
_atom_site_fract_z
Si Si1 0.320739 0.014187 0.016318
Si Si2 0.204467 0.655791 0.061161
Si Si3 0.539479 0.201230 0.877900
Si Si4 0.043796 0.755833 0.862584
Si Si5 0.605804 0.006414 0.418476
Si Si6 0.005933 0.788859 0.323444
Si Si7 0.275338 0.722294 0.695190
Si Si8 0.327992 0.620879 0.403914
O O1 0.384836 0.845644 0.018791
O O2 0.240687 0.951039 0.862927
O O3 0.151701 0.221947 0.162021
O O4 0.500000 0.000000 0.000000
O O5 0.307716 0.790271 0.160894
O O6 0.050386 0.750078 0.181610
O O7 0.359624 0.422961 0.973971
O O8 0.138007 0.659150 0.931107
O O9 0.493689 0.027154 0.720221
O O10 0.167931 0.657535 0.719469
O O11 0.000000 0.000000 0.000000
O O12 0.812689 0.822020 0.338474
O O13 0.500000 0.000000 0.500000
O O14 0.616065 0.218060 0.539165
O O15 0.183228 0.606479 0.296572
O O16 0.000000 0.000000 0.500000
O O17 0.237254 0.708503 0.557372
O O18 0.486474 0.583313 0.666466
#
# Coordination Sequence:
#
# PCOD9013924 Si02
#       8
#     2   2   2   2   2   2   2   2
#     4  11  23  39  62  95 131 162 207 261 323 375
#     4  11  23  41  66  96 125 166 218 259 318 376
#     4  11  23  40  66  93 128 165 207 272 312 373
#     4  10  22  38  65  92 124 166 209 256 308 384
#     4  11  25  40  61  91 126 166 207 262 319 373
#     4  10  23  38  64  87 125 165 208 256 307 380
#     4  10  21  41  66  91 120 169 211 256 310 378
#     4  10  22  42  66  88 125 166 214 256 314 382
#
# _framework density 23.290374
#
# number of rings (size 3 to 8) (size 9 to 14) (size 15 to 20)
#    0.000    1.500    2.500    3.000   12.250    1.500 
#    2.250    0.000    0.000    3.750    0.000    0.000 
#    0.000    0.000    0.000    0.000    0.000    0.000 
#
# Total GULP energy -89387.724327 kJ/mol
# GULP energy per Si atom -5586.732770 kJ/mol
# Density = 2.323736 g / cm^3
# Si number density = 23.290374 Si / 1000 Ang^3
#
#
#
# Elastic Constant Matrix: (Units=GPa)
#
#
# Indices 1 2 3 4 5 6 
#
# 1 145.2422 22.1562 38.1732 -16.1996 -40.2357 -9.1591
# 2 22.1562 99.2550 13.1953 -26.4274 -12.9426 -8.5439
# 3 38.1732 13.1953 62.8343 -35.0159 -31.2928 13.8733
# 4 -16.1996 -26.4274 -35.0159 35.8913 8.0316 -0.1281
# 5 -40.2357 -12.9426 -31.2928 8.0316 46.9577 -1.4283
# 6 -9.1591 -8.5439 13.8733 -0.1281 -1.4283 30.9612
#
#
#
# Elastic Compliance Matrix: (Units=1/GPa)
#
#
# Indices 1 2 3 4 5 6 
#
# 1 0.010240 -0.001708 -0.009118 -0.006292 0.003510 0.006779
# 2 -0.001708 0.016428 0.019871 0.028153 0.011362 -0.004235
# 3 -0.009118 0.019871 0.119852 0.114637 0.056471 -0.047838
# 4 -0.006292 0.028153 0.114637 0.145681 0.052555 -0.042432
# 5 0.003510 0.011362 0.056471 0.052555 0.055520 -0.018352
# 6 0.006779 -0.004235 -0.047838 -0.042432 -0.018352 0.053549
#
#
# Mechanical properties :
#
#
# Convention : Reuss Voigt Hill
#
# Bulk Modulus (GPa) = 6.07500 50.48676 28.28088
# Shear Modulus (GPa) = 11.41424 38.34917 24.88170
#
# Velocity S-wave (km/s) = 2.21619 4.06219 3.27207
# Velocity P-wave (km/s) = 3.02699 6.61257 5.14241
#
# Compressibility (1/GPa) = 0.16460902
#
# Stress axis : x y z
#
# Youngs Moduli (GPa) = 97.65709 60.87257 8.34365
#
# Poissons Ratio (x) = 0.10396 0.07608
# Poissons Ratio (y) = 0.16678 -0.16579
# Poissons Ratio (z) = 0.89042 -1.20957
#
# Static dielectric constant tensor:
#      x y z
#    x 1.940090 0.002960 -0.024620 
#    y 0.002960 1.906710 0.051990 
#    z -0.024620 0.051990 1.920720 
# 
# From -- ./inp_files/298130.got.cif
#   From: 2010.05.17/outbox.cif.g08.bks.cpg/sg2_150_cif.got.tgz:298130.got - 2010.06.03 11:33:40.
