data_PCOD9013116
_publ_section_title
;
Structure prediction by ZEFSAII (Michael W. Deem and Ramdas Pophale) SiO2 
 PCOD9013116
Probable space group: P -1
;
_chemical_formula_sum "Si O2"
_cell_formula_units_Z 16
_cell_length_a 24.861512
_cell_length_b 8.322447
_cell_length_c 8.782653
_cell_angle_alpha 53.501214
_cell_angle_beta 129.017837
_cell_angle_gamma 147.977828
_cell_volume 740.383184
_symmetry_space_group_name_H-M "P -1"
_symmetry_group_IT_number 2
_symmetry_cell_setting 'triclinic'
loop_
_space_group_symop_operation_xyz
x,y,z
-x,-y,-z
loop_
_atom_site_type_symbol
_atom_site_label
_atom_site_fract_x
_atom_site_fract_y
_atom_site_fract_z
Si Si1 0.093508 0.739711 0.652387
Si Si2 0.451621 0.759480 0.416666
Si Si3 0.326079 0.792137 0.968920
Si Si4 0.873504 0.778561 0.921831
Si Si5 0.351529 0.718374 0.706480
Si Si6 0.135340 0.263477 0.414366
Si Si7 0.006129 0.325411 0.007805
Si Si8 0.659212 0.720359 0.257507
O O1 0.000000 0.500000 0.500000
O O2 0.083258 0.949497 0.564629
O O3 0.213267 0.993537 0.662230
O O4 0.081002 0.557210 0.870793
O O5 0.393937 0.459858 0.576233
O O6 0.500000 0.000000 0.500000
O O7 0.552264 0.943313 0.383953
O O8 0.372443 0.724342 0.200198
O O9 0.349456 0.762605 0.857300
O O10 0.370543 0.109860 0.914370
O O11 0.200023 0.514374 0.936972
O O12 0.828537 0.699665 0.717520
O O13 0.000000 0.000000 0.000000
O O14 0.891554 0.023431 0.904506
O O15 0.238602 0.540006 0.538380
O O16 0.362410 0.507144 0.780285
O O17 0.052084 0.254043 0.238287
O O18 0.000000 0.500000 0.000000
#
# Coordination Sequence:
#
# PCOD9013116 Si02
#       8
#     2   2   2   2   2   2   2   2
#     4  11  22  38  65  91 126 176 222 259 325 401
#     4  10  23  46  71  99 135 172 222 279 339 397
#     4  12  24  43  71  98 136 173 223 282 330 392
#     4  10  21  41  63  90 132 179 214 265 331 392
#     4  10  24  45  69 100 133 171 229 282 325 400
#     4  10  22  45  62  90 136 173 213 275 326 391
#     4  11  25  39  61  97 130 172 219 269 330 386
#     4  10  24  43  68  98 131 182 219 266 348 395
#
# _framework density 21.610430000000001
#
# number of rings (size 3 to 8) (size 9 to 14) (size 15 to 20)
#    0.000    1.500    1.250    4.125    5.250    4.000 
#    0.000    3.750    0.000    0.000    0.000    0.000 
#    0.000    0.000    0.000    0.000    0.000    0.000 
#
# Total GULP energy -89148.092940 kJ/mol
# GULP energy per Si atom -5571.755809 kJ/mol
# Density = 2.156124 g / cm^3
# Si number density = 21.610430 Si / 1000 Ang^3
#
#
#
# Elastic Constant Matrix: (Units=GPa)
#
#
# Indices 1 2 3 4 5 6 
#
# 1 71.4222 22.3880 12.3467 -6.9144 -26.8201 -7.3069
# 2 22.3880 83.8722 9.0593 -28.0608 -11.2739 9.4011
# 3 12.3467 9.0593 59.0129 -18.1683 -8.1489 -0.3914
# 4 -6.9144 -28.0608 -18.1683 44.6403 -1.6895 -4.8400
# 5 -26.8201 -11.2739 -8.1489 -1.6895 34.0902 -6.9045
# 6 -7.3069 9.4011 -0.3914 -4.8400 -6.9045 34.0276
#
#
#
# Elastic Compliance Matrix: (Units=1/GPa)
#
#
# Indices 1 2 3 4 5 6 
#
# 1 0.024207 -0.003949 -0.000759 0.002873 0.019871 0.010721
# 2 -0.003949 0.017095 0.001833 0.010610 0.002808 -0.003471
# 3 -0.000759 0.001833 0.020705 0.009920 0.005891 0.002175
# 4 0.002873 0.010610 0.009920 0.034496 0.010844 0.004906
# 5 0.019871 0.002808 0.005891 0.010844 0.050969 0.015444
# 6 0.010721 -0.003471 0.002175 0.004906 0.015444 0.036506
#
#
# Mechanical properties :
#
#
# Convention : Reuss Voigt Hill
#
# Bulk Modulus (GPa) = 17.77549 33.54392 25.65971
# Shear Modulus (GPa) = 23.98307 33.91917 28.95112
#
# Velocity S-wave (km/s) = 3.33497 3.96608 3.66414
# Velocity P-wave (km/s) = 4.80340 6.04391 5.45901
#
# Compressibility (1/GPa) = 0.05625723
#
# Stress axis : x y z
#
# Youngs Moduli (GPa) = 41.31012 58.49512 48.29802
#
# Poissons Ratio (x) = 0.23101 0.03666
# Poissons Ratio (y) = 0.16315 -0.08854
# Poissons Ratio (z) = 0.03135 -0.10723
#
# Static dielectric constant tensor:
#      x y z
#    x 2.038850 0.004140 0.058210 
#    y 0.004140 1.869400 -0.001380 
#    z 0.058210 -0.001380 1.810480 
# 
# From -- ./inp_files/356362.got.cif
#   From: 2010.05.17/outbox.cif.g08.bks.cpg/sg2_179_cif.got.tgz:356362.got - 2010.06.03 11:33:40.
