data_PCOD9013422
_publ_section_title
;
Structure prediction by ZEFSAII (Michael W. Deem and Ramdas Pophale) SiO2 
 PCOD9013422
Probable space group: P -1
;
_chemical_formula_sum "Si O2"
_cell_formula_units_Z 16
_cell_length_a 11.902352
_cell_length_b 14.698925
_cell_length_c 9.035283
_cell_angle_alpha 71.853924
_cell_angle_beta 122.707854
_cell_angle_gamma 58.390336
_cell_volume 632.094788
_symmetry_space_group_name_H-M "P -1"
_symmetry_group_IT_number 2
_symmetry_cell_setting 'triclinic'
loop_
_space_group_symop_operation_xyz
x,y,z
-x,-y,-z
loop_
_atom_site_type_symbol
_atom_site_label
_atom_site_fract_x
_atom_site_fract_y
_atom_site_fract_z
Si Si1 0.164003 0.178861 0.931578
Si Si2 0.107708 0.496165 0.845905
Si Si3 0.382339 0.846593 0.293641
Si Si4 0.608249 0.829923 0.113011
Si Si5 0.394637 0.774874 0.886463
Si Si6 0.841232 0.115053 0.629579
Si Si7 0.371756 0.554541 0.721647
Si Si8 0.044757 0.595592 0.059824
O O1 0.275888 0.211047 0.943283
O O2 0.931581 0.295311 0.590319
O O3 0.041349 0.265822 0.963607
O O4 0.378642 0.960816 0.195525
O O5 0.852748 0.645167 0.482171
O O6 0.133298 0.385152 0.023406
O O7 0.349519 0.376073 0.971196
O O8 0.040886 0.613691 0.871226
O O9 0.293360 0.888307 0.379084
O O10 0.655746 0.622706 0.576481
O O11 0.136171 0.951560 0.979348
O O12 0.402428 0.871045 0.926281
O O13 0.500000 0.000000 0.000000
O O14 0.163905 0.897712 0.542124
O O15 0.454351 0.645914 0.096894
O O16 0.662996 0.319916 0.440844
O O17 0.500000 0.500000 0.000000
#
# Coordination Sequence:
#
# PCOD9013422 Si02
#       8
#     2   2   2   2   2   2   2   2
#     4  11  22  40  65  97 133 176 218 274 335 396
#     4  11  22  40  63  98 131 173 220 267 334 408
#     4  10  21  41  64  94 138 172 221 276 330 390
#     4  12  25  41  64 100 138 172 219 277 336 402
#     4  11  19  40  70  93 131 175 220 273 341 393
#     4   9  20  39  65  95 129 176 220 281 324 384
#     4   9  19  36  66  93 121 174 222 266 326 382
#     4  11  23  40  65  98 135 175 221 268 335 405
#
# _framework density 25.312660000000001
#
# number of rings (size 3 to 8) (size 9 to 14) (size 15 to 20)
#    0.000    1.500    3.750    1.875    0.000    1.000 
#    0.000    9.375    0.000    5.250    0.000    0.000 
#    0.000    0.000    0.000    0.000    0.000    0.000 
#
# Total GULP energy -89430.002584 kJ/mol
# GULP energy per Si atom -5589.375162 kJ/mol
# Density = 2.525505 g / cm^3
# Si number density = 25.312660 Si / 1000 Ang^3
#
#
#
# Elastic Constant Matrix: (Units=GPa)
#
#
# Indices 1 2 3 4 5 6 
#
# 1 81.8014 12.0365 1.4730 -0.4972 -13.3208 5.5375
# 2 12.0365 123.8890 17.8049 3.9595 -3.3296 -0.2773
# 3 1.4730 17.8049 79.6022 6.5103 -2.6795 12.8443
# 4 -0.4972 3.9595 6.5103 30.5920 3.7951 -1.9014
# 5 -13.3208 -3.3296 -2.6795 3.7951 32.4194 1.3350
# 6 5.5375 -0.2773 12.8443 -1.9014 1.3350 50.7866
#
#
#
# Elastic Compliance Matrix: (Units=1/GPa)
#
#
# Indices 1 2 3 4 5 6 
#
# 1 0.013418 -0.001219 0.000542 -0.000541 0.005569 -0.001773
# 2 -0.001219 0.008496 -0.001912 -0.000707 0.000271 0.000629
# 3 0.000542 -0.001912 0.013899 -0.003145 0.001698 -0.003747
# 4 -0.000541 -0.000707 -0.003145 0.034157 -0.004646 0.002251
# 5 0.005569 0.000271 0.001698 -0.004646 0.033933 -0.002101
# 6 -0.001773 0.000629 -0.003747 0.002251 -0.002101 0.020974
#
#
# Mechanical properties :
#
#
# Convention : Reuss Voigt Hill
#
# Bulk Modulus (GPa) = 32.64178 38.65794 35.64986
# Shear Modulus (GPa) = 35.64646 39.69149 37.66898
#
# Velocity S-wave (km/s) = 3.75673 3.96416 3.86184
# Velocity P-wave (km/s) = 5.63390 6.02146 5.83090
#
# Compressibility (1/GPa) = 0.03063559
#
# Stress axis : x y z
#
# Youngs Moduli (GPa) = 74.52700 117.69888 71.94666
#
# Poissons Ratio (x) = 0.14342 -0.03900
# Poissons Ratio (y) = 0.09081 0.13759
# Poissons Ratio (z) = -0.04040 0.22509
#
# Static dielectric constant tensor:
#      x y z
#    x 2.038770 -0.070410 0.019710 
#    y -0.070410 2.110640 0.018020 
#    z 0.019710 0.018020 1.983330 
# 
# From -- ./inp_files/272687.got.cif
#   From: 2010.05.17/outbox.cif.g08.bks.cpg/sg2_137_cif.got.tgz:272687.got - 2010.06.03 11:33:40.
