data_PCOD9013295
_publ_section_title
;
Structure prediction by ZEFSAII (Michael W. Deem and Ramdas Pophale) SiO2 
 PCOD9013295
Probable space group: P -1
;
_chemical_formula_sum "Si O2"
_cell_formula_units_Z 14
_cell_length_a 21.013472
_cell_length_b 5.100471
_cell_length_c 18.142384
_cell_angle_alpha 112.338834
_cell_angle_beta 160.831480
_cell_angle_gamma 68.284988
_cell_volume 590.162762
_symmetry_space_group_name_H-M "P -1"
_symmetry_group_IT_number 2
_symmetry_cell_setting 'triclinic'
loop_
_space_group_symop_operation_xyz
x,y,z
-x,-y,-z
loop_
_atom_site_type_symbol
_atom_site_label
_atom_site_fract_x
_atom_site_fract_y
_atom_site_fract_z
Si Si1 0.781860 0.950919 0.735340
Si Si2 0.621794 0.596600 0.866456
Si Si3 0.705197 0.452679 0.320644
Si Si4 0.933095 0.923638 0.332364
Si Si5 0.457719 0.622732 0.388210
Si Si6 0.745337 0.550707 0.202366
Si Si7 0.630891 0.898382 0.404126
O O1 0.669298 0.659737 0.587926
O O2 0.735802 0.011327 0.604837
O O3 0.673823 0.107669 0.703073
O O4 0.000000 0.000000 0.000000
O O5 0.660364 0.556637 0.817444
O O6 0.544958 0.297510 0.780054
O O7 0.453032 0.842231 0.708993
O O8 0.803987 0.715034 0.119021
O O9 0.737884 0.555954 0.283399
O O10 0.747258 0.686053 0.453664
O O11 0.847532 0.179892 0.458158
O O12 0.473906 0.401878 0.062630
O O13 0.873442 0.794976 0.333820
O O14 0.838742 0.239804 0.250582
O O15 0.500000 0.500000 0.500000
#
# Coordination Sequence:
#
# PCOD9013295 Si02
#       7
#     2   2   2   2   2   2   2
#     4  10  23  41  65  93 129 169 224 268 324 401
#     4  11  22  42  65  93 134 168 217 272 326 391
#     4  11  25  43  70  97 132 178 219 274 336 391
#     4  12  24  44  68  97 131 177 224 268 330 400
#     4  10  21  41  64  88 127 176 207 268 335 382
#     4  11  26  45  66  97 136 171 224 276 327 393
#     4  11  23  44  63  97 134 168 213 279 328 383
#
# _framework density 23.722268
#
# number of rings (size 3 to 8) (size 9 to 14) (size 15 to 20)
#    0.000    1.143    4.286    0.857    2.000    6.286 
#    0.000    0.000    0.000    0.000    0.000    0.000 
#    0.000    0.000    0.000    0.000    0.000    0.000 
#
# Total GULP energy -78108.717299 kJ/mol
# GULP energy per Si atom -5579.194093 kJ/mol
# Density = 2.366828 g / cm^3
# Si number density = 23.722268 Si / 1000 Ang^3
#
#
#
# Elastic Constant Matrix: (Units=GPa)
#
#
# Indices 1 2 3 4 5 6 
#
# 1 72.2706 18.5931 20.8921 -7.2430 -1.7192 -19.1400
# 2 18.5931 129.4869 38.1730 -6.9754 21.5424 -12.8877
# 3 20.8921 38.1730 134.9295 -25.8635 29.7465 -5.9676
# 4 -7.2430 -6.9754 -25.8635 19.4151 -1.4371 -0.2569
# 5 -1.7192 21.5424 29.7465 -1.4371 38.7092 7.3090
# 6 -19.1400 -12.8877 -5.9676 -0.2569 7.3090 51.8692
#
#
#
# Elastic Compliance Matrix: (Units=1/GPa)
#
#
# Indices 1 2 3 4 5 6 
#
# 1 0.016502 -0.001492 -0.001628 0.003666 0.001955 0.005274
# 2 -0.001492 0.009344 -0.001018 0.001114 -0.004886 0.002348
# 3 -0.001628 -0.001018 0.013168 0.015898 -0.009425 0.002068
# 4 0.003666 0.001114 0.015898 0.073713 -0.010951 0.005367
# 5 0.001955 -0.004886 -0.009425 -0.010951 0.036762 -0.006812
# 6 0.005274 0.002348 0.002068 0.005367 -0.006812 0.023033
#
#
# Mechanical properties :
#
#
# Convention : Reuss Voigt Hill
#
# Bulk Modulus (GPa) = 32.53360 54.66704 43.60032
# Shear Modulus (GPa) = 26.17192 39.26730 32.71961
#
# Velocity S-wave (km/s) = 3.32515 4.07294 3.71789
# Velocity P-wave (km/s) = 5.33725 6.72407 6.07039
#
# Compressibility (1/GPa) = 0.03073746
#
# Stress axis : x y z
#
# Youngs Moduli (GPa) = 60.59831 107.02404 75.94114
#
# Poissons Ratio (x) = 0.15973 0.12362
# Poissons Ratio (y) = 0.09044 0.07730
# Poissons Ratio (z) = 0.09865 0.10894
#
# Static dielectric constant tensor:
#      x y z
#    x 1.891220 0.217050 0.049430 
#    y 0.217050 1.322660 -0.316790 
#    z 0.049430 -0.316790 1.740010 
# 
# From -- ./inp_files/576832.got.cif
#   From: 2010.05.17/outbox.cif.g08.bks.cpg/sg2_289_cif.got.tgz:576832.got - 2010.06.03 11:33:40.
