data_PCOD9013589
_publ_section_title
;
Structure prediction by ZEFSAII (Michael W. Deem and Ramdas Pophale) SiO2 
 PCOD9013589
Probable space group: P -1
;
_chemical_formula_sum "Si O2"
_cell_formula_units_Z 16
_cell_length_a 18.407343
_cell_length_b 12.867038
_cell_length_c 9.097841
_cell_angle_alpha 144.169567
_cell_angle_beta 43.425467
_cell_angle_gamma 152.475361
_cell_volume 582.718558
_symmetry_space_group_name_H-M "P -1"
_symmetry_group_IT_number 2
_symmetry_cell_setting 'triclinic'
loop_
_space_group_symop_operation_xyz
x,y,z
-x,-y,-z
loop_
_atom_site_type_symbol
_atom_site_label
_atom_site_fract_x
_atom_site_fract_y
_atom_site_fract_z
Si Si1 0.892389 0.094415 0.127557
Si Si2 0.640263 0.313437 0.670666
Si Si3 0.952757 0.759765 0.609385
Si Si4 0.859438 0.487424 0.979281
Si Si5 0.243754 0.229130 0.550518
Si Si6 0.333436 0.937267 0.442543
Si Si7 0.389289 0.869443 0.864838
Si Si8 0.483824 0.367999 0.163500
O O1 0.729234 0.989632 0.276856
O O2 0.974261 0.194275 0.283930
O O3 0.977982 0.305437 0.110555
O O4 0.896904 0.895685 0.851746
O O5 0.782035 0.457672 0.516207
O O6 0.711211 0.313588 0.715923
O O7 0.500000 0.000000 0.500000
O O8 0.568563 0.413667 0.939304
O O9 0.087186 0.925489 0.476934
O O10 0.768360 0.206915 0.719002
O O11 0.800501 0.618606 0.201037
O O12 0.794366 0.376295 0.111578
O O13 0.328059 0.288300 0.339722
O O14 0.376440 0.371264 0.645327
O O15 0.518094 0.170779 0.406222
O O16 0.500000 0.000000 0.000000
O O17 0.428914 0.108789 0.011924
#
# Coordination Sequence:
#
# PCOD9013589 Si02
#       8
#     2   2   2   2   2   2   2   2
#     4  10  19  31  54  79 117 128 170 228 280 330
#     4  11  22  40  55  73 110 149 190 220 248 318
#     4  10  21  34  50  83 105 148 171 221 281 314
#     4  10  17  30  46  82 114 131 160 212 277 332
#     4  10  19  31  54  78 117 128 173 223 277 327
#     4  10  19  32  50  82 106 140 174 217 271 318
#     4   9  17  27  43  72 114 129 166 199 265 329
#     4  10  19  33  51  83 105 143 173 215 276 319
#
# _framework density 27.457511
#
# number of rings (size 3 to 8) (size 9 to 14) (size 15 to 20)
#    0.000    2.000    5.000    1.875    3.500    1.000 
#    0.000    1.250    0.000    0.000    0.000    8.750 
#    0.000    0.000    0.000    0.000    0.000    0.000 
#
# Total GULP energy -89180.837792 kJ/mol
# GULP energy per Si atom -5573.802362 kJ/mol
# Density = 2.739502 g / cm^3
# Si number density = 27.457511 Si / 1000 Ang^3
#
#
#
# Elastic Constant Matrix: (Units=GPa)
#
#
# Indices 1 2 3 4 5 6 
#
# 1 31.9562 26.6556 23.3751 -8.4419 -4.6323 -2.5993
# 2 26.6556 192.9863 51.4600 -29.9848 -7.4274 -17.7033
# 3 23.3751 51.4600 135.9031 -51.7012 -24.6791 0.4949
# 4 -8.4419 -29.9848 -51.7012 45.7071 0.2522 4.4925
# 5 -4.6323 -7.4274 -24.6791 0.2522 34.0447 -9.0641
# 6 -2.5993 -17.7033 0.4949 4.4925 -9.0641 30.2638
#
#
#
# Elastic Compliance Matrix: (Units=1/GPa)
#
#
# Indices 1 2 3 4 5 6 
#
# 1 0.038502 -0.003931 -0.005936 -0.002343 0.000524 0.001609
# 2 -0.003931 0.006680 -0.000627 0.002583 0.001412 0.003620
# 3 -0.005936 -0.000627 0.017849 0.018659 0.011744 -0.000421
# 4 -0.002343 0.002583 0.018659 0.044340 0.012993 -0.001686
# 5 0.000524 0.001412 0.011744 0.012993 0.041115 0.011064
# 6 0.001609 0.003620 -0.000421 -0.001686 0.011064 0.038869
#
#
# Mechanical properties :
#
#
# Convention : Reuss Voigt Hill
#
# Bulk Modulus (GPa) = 23.78593 62.64745 43.21669
# Shear Modulus (GPa) = 22.48631 39.29345 30.88988
#
# Velocity S-wave (km/s) = 2.86483 3.78704 3.35775
# Velocity P-wave (km/s) = 4.42997 6.47981 5.55034
#
# Compressibility (1/GPa) = 0.04204165
#
# Stress axis : x y z
#
# Youngs Moduli (GPa) = 25.97277 149.70792 56.02555
#
# Poissons Ratio (x) = 0.58857 0.33255
# Poissons Ratio (y) = 0.10211 0.03514
# Poissons Ratio (z) = 0.15417 0.09390
#
# Static dielectric constant tensor:
#      x y z
#    x 2.641320 0.007010 0.097740 
#    y 0.007010 2.204150 -0.061930 
#    z 0.097740 -0.061930 2.175020 
# 
# From -- ./inp_files/476978.got.cif
#   From: 2010.05.17/outbox.cif.g08.bks.cpg/sg2_239_cif.got.tgz:476978.got - 2010.06.03 11:33:40.
