data_PCOD9013835
_publ_section_title
;
Structure prediction by ZEFSAII (Michael W. Deem and Ramdas Pophale) SiO2 
 PCOD9013835
Probable space group: P -1
;
_chemical_formula_sum "Si O2"
_cell_formula_units_Z 16
_cell_length_a 8.945729
_cell_length_b 9.121141
_cell_length_c 14.215429
_cell_angle_alpha 76.386393
_cell_angle_beta 102.984712
_cell_angle_gamma 48.592321
_cell_volume 721.282207
_symmetry_space_group_name_H-M "P -1"
_symmetry_group_IT_number 2
_symmetry_cell_setting 'triclinic'
loop_
_space_group_symop_operation_xyz
x,y,z
-x,-y,-z
loop_
_atom_site_type_symbol
_atom_site_label
_atom_site_fract_x
_atom_site_fract_y
_atom_site_fract_z
Si Si1 0.070374 0.484386 0.290881
Si Si2 0.632550 0.842919 0.792366
Si Si3 0.275894 0.052781 0.452841
Si Si4 0.717948 0.383236 0.612341
Si Si5 0.781804 0.033522 0.349975
Si Si6 0.616175 0.007264 0.096765
Si Si7 0.702797 0.263582 0.118645
Si Si8 0.217071 0.963602 0.250836
O O1 0.173908 0.359698 0.222009
O O2 0.070027 0.331613 0.375213
O O3 0.249834 0.473735 0.362884
O O4 0.822483 0.748564 0.205696
O O5 0.383546 0.989064 0.688172
O O6 0.601902 0.789121 0.896314
O O7 0.657398 0.000514 0.794707
O O8 0.230743 0.960411 0.540101
O O9 0.500000 0.000000 0.500000
O O10 0.277304 0.968562 0.365665
O O11 0.500000 0.500000 0.500000
O O12 0.716488 0.259937 0.713856
O O13 0.956219 0.182183 0.616933
O O14 0.679653 0.234508 0.231903
O O15 0.735818 0.081459 0.094065
O O16 0.500000 0.000000 0.000000
O O17 0.500000 0.500000 0.000000
O O18 0.941954 0.178938 0.162517
#
# Coordination Sequence:
#
# PCOD9013835 Si02
#       8
#     2   2   2   2   2   2   2   2
#     4  11  22  42  68  99 142 176 228 280 346 412
#     4  10  22  43  70  96 130 183 230 278 350 412
#     4  11  21  37  69 106 139 183 231 279 344 431
#     4  11  23  38  61  99 144 183 218 284 340 406
#     4  10  21  44  64  99 139 182 233 274 343 421
#     4  11  25  48  71  99 136 177 242 291 341 421
#     4  10  23  45  68  95 142 183 229 297 347 402
#     4  10  21  41  65  99 145 173 233 284 340 419
#
# _framework density 22.182717
#
# number of rings (size 3 to 8) (size 9 to 14) (size 15 to 20)
#    0.000    1.500    6.250    0.750    3.500    4.000 
#    4.500    3.125    0.000    0.000    0.000    0.000 
#    0.000    0.000    0.000    0.000    0.000    0.000 
#
# Total GULP energy -89106.889468 kJ/mol
# GULP energy per Si atom -5569.180592 kJ/mol
# Density = 2.213223 g / cm^3
# Si number density = 22.182717 Si / 1000 Ang^3
#
#
#
# Elastic Constant Matrix: (Units=GPa)
#
#
# Indices 1 2 3 4 5 6 
#
# 1 100.3406 2.0865 20.6461 -6.8170 5.8266 3.9633
# 2 2.0865 58.4658 25.5142 -0.4495 -6.3359 2.3087
# 3 20.6461 25.5142 99.7713 -18.9029 11.5551 -2.1662
# 4 -6.8170 -0.4495 -18.9029 40.5396 10.5654 0.6377
# 5 5.8266 -6.3359 11.5551 10.5654 26.9250 0.8907
# 6 3.9633 2.3087 -2.1662 0.6377 0.8907 35.3963
#
#
#
# Elastic Compliance Matrix: (Units=1/GPa)
#
#
# Indices 1 2 3 4 5 6 
#
# 1 0.010595 0.000230 -0.001756 0.001517 -0.002038 -0.001285
# 2 0.000230 0.021941 -0.008230 -0.006454 0.011248 -0.002127
# 3 -0.001756 -0.008230 0.015919 0.010259 -0.012475 0.001837
# 4 0.001517 -0.006454 0.010259 0.034818 -0.019937 0.000753
# 5 -0.002038 0.011248 -0.012475 -0.019937 0.053480 -0.002255
# 6 -0.001285 -0.002127 0.001837 0.000753 -0.002255 0.028690
#
#
# Mechanical properties :
#
#
# Convention : Reuss Voigt Hill
#
# Bulk Modulus (GPa) = 34.55120 39.45237 37.00179
# Shear Modulus (GPa) = 25.69350 34.59423 30.14387
#
# Velocity S-wave (km/s) = 3.40702 3.95335 3.69031
# Velocity P-wave (km/s) = 5.57554 6.21791 5.90547
#
# Compressibility (1/GPa) = 0.02894255
#
# Stress axis : x y z
#
# Youngs Moduli (GPa) = 94.38728 45.57752 62.81761
#
# Poissons Ratio (x) = -0.01046 0.11028
# Poissons Ratio (y) = -0.02167 0.51698
# Poissons Ratio (z) = 0.16570 0.37510
#
# Static dielectric constant tensor:
#      x y z
#    x 1.838690 0.023890 -0.029320 
#    y 0.023890 1.860940 0.019330 
#    z -0.029320 0.019330 1.920770 
# 
# From -- ./inp_files/494676.got.cif
#   From: 2010.05.17/outbox.cif.g08.bks.cpg/sg2_248_cif.got.tgz:494676.got - 2010.06.03 11:33:40.
