data_PCOD9013178
_publ_section_title
;
Structure prediction by ZEFSAII (Michael W. Deem and Ramdas Pophale) SiO2 
 PCOD9013178
Probable space group: P -1
;
_chemical_formula_sum "Si O2"
_cell_formula_units_Z 16
_cell_length_a 13.143068
_cell_length_b 15.740841
_cell_length_c 13.969277
_cell_angle_alpha 37.932496
_cell_angle_beta 119.416261
_cell_angle_gamma 150.514042
_cell_volume 667.600361
_symmetry_space_group_name_H-M "P -1"
_symmetry_group_IT_number 2
_symmetry_cell_setting 'triclinic'
loop_
_space_group_symop_operation_xyz
x,y,z
-x,-y,-z
loop_
_atom_site_type_symbol
_atom_site_label
_atom_site_fract_x
_atom_site_fract_y
_atom_site_fract_z
Si Si1 0.679485 0.346017 0.194136
Si Si2 0.562107 0.518728 0.700218
Si Si3 0.572927 0.305615 0.735374
Si Si4 0.075438 0.157952 0.256481
Si Si5 0.147349 0.659000 0.188323
Si Si6 0.281536 0.147956 0.232284
Si Si7 0.310284 0.798979 0.354950
Si Si8 0.230101 0.409319 0.628867
O O1 0.456133 0.195440 0.284022
O O2 0.856552 0.422861 0.265651
O O3 0.521589 0.103433 0.249069
O O4 0.885340 0.681507 0.946759
O O5 0.502397 0.340984 0.751539
O O6 0.672372 0.559222 0.807543
O O7 0.319489 0.360687 0.757750
O O8 0.811353 0.872624 0.454790
O O9 0.832416 0.479174 0.711820
O O10 0.619784 0.430599 0.546681
O O11 0.323137 0.933631 0.950716
O O12 0.105713 0.037691 0.330534
O O13 0.305436 0.829351 0.211991
O O14 0.500000 0.500000 0.000000
O O15 0.083437 0.914223 0.257780
O O16 0.334014 0.658917 0.504301
O O17 0.000000 0.500000 0.500000
#
# Coordination Sequence:
#
# PCOD9013178 Si02
#       8
#     2   2   2   2   2   2   2   2
#     4  11  23  44  67  88 130 172 205 262 315 368
#     4  11  22  37  67  91 127 164 199 269 320 362
#     4  10  21  41  63  94 129 158 217 260 304 394
#     4  10  23  40  59 100 125 154 219 256 308 386
#     4  10  24  41  67  94 124 173 205 258 326 363
#     4  10  22  40  60  90 127 160 212 257 302 379
#     4  11  24  44  61  95 132 161 219 256 298 393
#     4  11  22  40  64  92 125 168 205 260 318 362
#
# _framework density 23.966435000000001
#
# number of rings (size 3 to 8) (size 9 to 14) (size 15 to 20)
#    0.000    1.500    2.500    1.875    3.500    3.500 
#    0.000    8.125    0.000    0.000    0.000    0.000 
#    0.000    0.000    0.000    0.000    0.000    0.000 
#
# Total GULP energy -89378.956636 kJ/mol
# GULP energy per Si atom -5586.184790 kJ/mol
# Density = 2.391189 g / cm^3
# Si number density = 23.966435 Si / 1000 Ang^3
#
#
#
# Elastic Constant Matrix: (Units=GPa)
#
#
# Indices 1 2 3 4 5 6 
#
# 1 132.5517 50.2927 -2.5297 -4.4324 23.2521 23.0406
# 2 50.2927 84.3452 9.1847 -6.1549 15.1883 25.8054
# 3 -2.5297 9.1847 48.3647 0.1688 9.1803 -2.5915
# 4 -4.4324 -6.1549 0.1688 21.1745 -2.9843 7.8119
# 5 23.2521 15.1883 9.1803 -2.9843 39.8188 -2.8494
# 6 23.0406 25.8054 -2.5915 7.8119 -2.8494 53.4510
#
#
#
# Elastic Compliance Matrix: (Units=1/GPa)
#
#
# Indices 1 2 3 4 5 6 
#
# 1 0.010839 -0.004923 0.002325 0.001065 -0.005095 -0.002610
# 2 -0.004923 0.018927 -0.003650 0.007104 -0.003574 -0.008421
# 3 0.002325 -0.003650 0.022588 -0.002187 -0.005202 0.001897
# 4 0.001065 0.007104 -0.002187 0.053960 0.000368 -0.011861
# 5 -0.005095 -0.003574 -0.005202 0.000368 0.031056 0.005271
# 6 -0.002610 -0.008421 0.001897 -0.011861 0.005271 0.026006
#
#
# Mechanical properties :
#
#
# Convention : Reuss Voigt Hill
#
# Bulk Modulus (GPa) = 25.08756 42.12856 33.60806
# Shear Modulus (GPa) = 26.43310 36.77646 31.60478
#
# Velocity S-wave (km/s) = 3.32463 3.92152 3.63534
# Velocity P-wave (km/s) = 5.02275 6.17420 5.62800
#
# Compressibility (1/GPa) = 0.03986039
#
# Stress axis : x y z
#
# Youngs Moduli (GPa) = 92.25530 52.83407 44.27216
#
# Poissons Ratio (x) = 0.26009 -0.10295
# Poissons Ratio (y) = 0.45415 0.16157
# Poissons Ratio (z) = -0.21453 0.19282
#
# Static dielectric constant tensor:
#      x y z
#    x 1.989740 0.021040 -0.014120 
#    y 0.021040 1.950670 -0.012510 
#    z -0.014120 -0.012510 1.951070 
# 
# From -- ./inp_files/522285.got.cif
#   From: 2010.05.17/outbox.cif.g08.bks.cpg/sg2_262_cif.got.tgz:522285.got - 2010.06.03 11:33:40.
