data_PCOD9013041
_publ_section_title
;
Structure prediction by ZEFSAII (Michael W. Deem and Ramdas Pophale) SiO2 
 PCOD9013041
Probable space group: P -1
;
_chemical_formula_sum "Si O2"
_cell_formula_units_Z 16
_cell_length_a 5.111714
_cell_length_b 10.897815
_cell_length_c 11.725149
_cell_angle_alpha 114.911437
_cell_angle_beta 88.997141
_cell_angle_gamma 93.452429
_cell_volume 591.299045
_symmetry_space_group_name_H-M "P -1"
_symmetry_group_IT_number 2
_symmetry_cell_setting 'triclinic'
loop_
_space_group_symop_operation_xyz
x,y,z
-x,-y,-z
loop_
_atom_site_type_symbol
_atom_site_label
_atom_site_fract_x
_atom_site_fract_y
_atom_site_fract_z
Si Si1 0.365806 0.356110 0.195426
Si Si2 0.765217 0.598680 0.544844
Si Si3 0.224787 0.653746 0.246101
Si Si4 0.275854 0.821824 0.790384
Si Si5 0.823884 0.999105 0.322387
Si Si6 0.503605 0.225409 0.919639
Si Si7 0.725441 0.778637 0.395756
Si Si8 0.195098 0.008056 0.140901
O O1 0.216246 0.324113 0.303440
O O2 0.286377 0.507312 0.233536
O O3 0.665508 0.326577 0.222034
O O4 0.337473 0.288050 0.045177
O O5 0.500000 0.500000 0.500000
O O6 0.773407 0.711133 0.490364
O O7 0.000000 0.500000 0.500000
O O8 0.342569 0.670054 0.124548
O O9 0.421562 0.750493 0.357238
O O10 0.928845 0.697245 0.282029
O O11 0.265709 0.855847 0.666596
O O12 0.549155 0.900319 0.854218
O O13 0.049316 0.914376 0.872634
O O14 0.668847 0.885428 0.196983
O O15 0.783201 0.935151 0.421130
O O16 0.121274 0.999635 0.273903
O O17 0.730836 0.142783 0.943394
#
# Coordination Sequence:
#
# PCOD9013041 Si02
#       8
#     2   2   2   2   2   2   2   2
#     4  12  25  41  64  95 136 161 210 265 312 383
#     4  12  25  47  64  91 125 170 213 256 318 371
#     4  11  22  41  64  93 127 162 209 261 312 376
#     4   9  21  38  59  94 126 170 201 252 312 371
#     4   8  19  39  66  90 126 164 208 249 304 378
#     4  10  21  41  63 102 123 171 203 259 317 370
#     4  11  20  42  71  87 119 172 215 251 311 371
#     4   9  18  40  61  86 132 161 209 241 308 381
#
# _framework density 27.059066999999999
#
# number of rings (size 3 to 8) (size 9 to 14) (size 15 to 20)
#    0.750    1.000    3.750    0.375    0.000    4.500 
#    6.750    2.500    0.000    0.750    0.000    0.000 
#    0.000    0.000    0.000    0.000    0.000    0.000 
#
# Total GULP energy -89362.830509 kJ/mol
# GULP energy per Si atom -5585.176907 kJ/mol
# Density = 2.699748 g / cm^3
# Si number density = 27.059067 Si / 1000 Ang^3
#
#
#
# Elastic Constant Matrix: (Units=GPa)
#
#
# Indices 1 2 3 4 5 6 
#
# 1 137.3999 23.0575 14.7309 3.3288 -9.1715 -23.2600
# 2 23.0575 130.8679 40.4038 -43.3458 -0.0827 -21.3164
# 3 14.7309 40.4038 124.8645 -24.3348 -19.1963 0.9415
# 4 3.3288 -43.3458 -24.3348 57.5851 -2.8730 -10.6319
# 5 -9.1715 -0.0827 -19.1963 -2.8730 36.4855 -4.1479
# 6 -23.2600 -21.3164 0.9415 -10.6319 -4.1479 47.6423
#
#
#
# Elastic Compliance Matrix: (Units=1/GPa)
#
#
# Indices 1 2 3 4 5 6 
#
# 1 0.008268 -0.000881 -0.000488 -0.000551 0.002200 0.003721
# 2 -0.000881 0.013268 -0.002108 0.010639 0.000442 0.007961
# 3 -0.000488 -0.002108 0.010161 0.002960 0.005423 -0.000249
# 4 -0.000551 0.010639 0.002960 0.029001 0.005016 0.011342
# 5 0.002200 0.000442 0.005423 0.005016 0.031785 0.005051
# 6 0.003721 0.007961 -0.000249 0.011342 0.005051 0.029344
#
#
# Mechanical properties :
#
#
# Convention : Reuss Voigt Hill
#
# Bulk Modulus (GPa) = 40.41375 61.05741 50.73558
# Shear Modulus (GPa) = 36.48884 49.33858 42.91371
#
# Velocity S-wave (km/s) = 3.67616 4.27472 3.98669
# Velocity P-wave (km/s) = 5.74340 6.85404 6.32315
#
# Compressibility (1/GPa) = 0.02474406
#
# Stress axis : x y z
#
# Youngs Moduli (GPa) = 120.94544 75.36768 98.41761
#
# Poissons Ratio (x) = 0.06641 0.04798
# Poissons Ratio (y) = 0.10657 0.20746
# Poissons Ratio (z) = 0.05896 0.15887
#
# Static dielectric constant tensor:
#      x y z
#    x 2.205860 0.047840 0.048630 
#    y 0.047840 2.186830 -0.002320 
#    z 0.048630 -0.002320 2.243370 
# 
# From -- ./inp_files/101329.got.cif
#   From: 2010.05.17/outbox.cif.g08.bks.cpg/sg2_51_cif.got.tgz:101329.got - 2010.06.03 11:33:40.
