data_PCOD9013552
_publ_section_title
;
Structure prediction by ZEFSAII (Michael W. Deem and Ramdas Pophale) SiO2 
 PCOD9013552
Probable space group: P -1
;
_chemical_formula_sum "Si O2"
_cell_formula_units_Z 16
_cell_length_a 12.222379
_cell_length_b 9.274856
_cell_length_c 7.980708
_cell_angle_alpha 75.583196
_cell_angle_beta 122.103812
_cell_angle_gamma 74.628816
_cell_volume 649.343139
_symmetry_space_group_name_H-M "P -1"
_symmetry_group_IT_number 2
_symmetry_cell_setting 'triclinic'
loop_
_space_group_symop_operation_xyz
x,y,z
-x,-y,-z
loop_
_atom_site_type_symbol
_atom_site_label
_atom_site_fract_x
_atom_site_fract_y
_atom_site_fract_z
Si Si1 0.103669 0.867875 0.489595
Si Si2 0.906256 0.647394 0.020867
Si Si3 0.155005 0.550587 0.517593
Si Si4 0.670163 0.077201 0.152631
Si Si5 0.370742 0.655207 0.453558
Si Si6 0.618391 0.776699 0.284628
Si Si7 0.142172 0.009426 0.999580
Si Si8 0.581648 0.792402 0.635457
O O1 0.110063 0.688492 0.584585
O O2 0.254615 0.862956 0.664600
O O3 0.000000 0.000000 0.500000
O O4 0.020520 0.938085 0.223276
O O5 0.013420 0.585476 0.285229
O O6 0.878320 0.843722 0.927237
O O7 0.736412 0.691480 0.887906
O O8 0.000000 0.500000 0.000000
O O9 0.270649 0.595777 0.496340
O O10 0.245754 0.353314 0.676714
O O11 0.775648 0.981105 0.107560
O O12 0.614362 0.956071 0.223206
O O13 0.524720 0.223065 0.905883
O O14 0.500000 0.500000 0.500000
O O15 0.464230 0.731295 0.602626
O O16 0.250162 0.816317 0.200608
O O17 0.633186 0.732936 0.503744
O O18 0.500000 0.000000 0.500000
#
# Coordination Sequence:
#
# PCOD9013552 Si02
#       8
#     2   2   2   2   2   2   2   2
#     4   9  22  42  65  88 125 172 218 264 321 381
#     4  11  21  41  67  97 133 165 214 268 330 391
#     4  11  24  41  65  98 131 165 215 271 321 391
#     4  10  21  41  65  88 121 175 217 260 314 376
#     4  12  22  40  65  96 134 168 207 267 336 388
#     4  11  22  40  65  90 129 164 219 264 314 382
#     4  10  21  41  65  90 132 165 213 266 323 382
#     4  12  23  40  65  95 134 169 209 268 326 391
#
# _framework density 24.640288000000002
#
# number of rings (size 3 to 8) (size 9 to 14) (size 15 to 20)
#    0.000    1.250    5.000    0.000    1.750    3.500 
#    2.250    5.625    2.750    0.000    0.000    0.000 
#    0.000    0.000    0.000    0.000    0.000    0.000 
#
# Total GULP energy -89271.572316 kJ/mol
# GULP energy per Si atom -5579.473270 kJ/mol
# Density = 2.458421 g / cm^3
# Si number density = 24.640288 Si / 1000 Ang^3
#
#
#
# Elastic Constant Matrix: (Units=GPa)
#
#
# Indices 1 2 3 4 5 6 
#
# 1 85.7182 0.6064 31.6634 11.3218 12.2477 -9.5919
# 2 0.6064 140.9878 42.1472 11.3632 13.2655 -28.4845
# 3 31.6634 42.1472 123.7871 12.7282 54.4758 4.7347
# 4 11.3218 11.3632 12.7282 38.4856 4.1842 12.9664
# 5 12.2477 13.2655 54.4758 4.1842 43.0961 -0.5938
# 6 -9.5919 -28.4845 4.7347 12.9664 -0.5938 42.7660
#
#
#
# Elastic Compliance Matrix: (Units=1/GPa)
#
#
# Indices 1 2 3 4 5 6 
#
# 1 0.015413 0.003863 -0.006272 -0.006931 0.003155 0.008869
# 2 0.003863 0.011453 -0.006662 -0.006623 0.004596 0.011304
# 3 -0.006272 -0.006662 0.023804 0.002017 -0.026582 -0.009460
# 4 -0.006931 -0.006623 0.002017 0.035246 -0.002196 -0.016906
# 5 0.003155 0.004596 -0.026582 -0.002196 0.054819 0.008139
# 6 0.008869 0.011304 -0.009460 -0.016906 0.008139 0.039187
#
#
# Mechanical properties :
#
#
# Convention : Reuss Voigt Hill
#
# Bulk Modulus (GPa) = 30.74412 55.48079 43.11245
# Shear Modulus (GPa) = 23.93414 43.27460 33.60437
#
# Velocity S-wave (km/s) = 3.12002 4.19531 3.69697
# Velocity P-wave (km/s) = 5.04813 6.78474 5.97981
#
# Compressibility (1/GPa) = 0.03252655
#
# Stress axis : x y z
#
# Youngs Moduli (GPa) = 64.88010 87.31571 42.01061
#
# Poissons Ratio (x) = -0.33726 0.26351
# Poissons Ratio (y) = -0.25061 0.27985
# Poissons Ratio (z) = 0.40695 0.58166
#
# Static dielectric constant tensor:
#      x y z
#    x 2.113070 0.024030 -0.059310 
#    y 0.024030 2.091620 -0.129000 
#    z -0.059310 -0.129000 2.108520 
# 
# From -- ./inp_files/295650.got.cif
#   From: 2010.05.17/outbox.cif.g08.bks.cpg/sg2_148_cif.got.tgz:295650.got - 2010.06.03 11:33:40.
