data_PCOD9013564
_publ_section_title
;
Structure prediction by ZEFSAII (Michael W. Deem and Ramdas Pophale) SiO2 
 PCOD9013564
Probable space group: P -1
;
_chemical_formula_sum "Si O2"
_cell_formula_units_Z 16
_cell_length_a 7.933298
_cell_length_b 14.034655
_cell_length_c 11.344418
_cell_angle_alpha 45.471133
_cell_angle_beta 137.368607
_cell_angle_gamma 112.552887
_cell_volume 586.483894
_symmetry_space_group_name_H-M "P -1"
_symmetry_group_IT_number 2
_symmetry_cell_setting 'triclinic'
loop_
_space_group_symop_operation_xyz
x,y,z
-x,-y,-z
loop_
_atom_site_type_symbol
_atom_site_label
_atom_site_fract_x
_atom_site_fract_y
_atom_site_fract_z
Si Si1 0.161972 0.099559 0.942616
Si Si2 0.694566 0.867696 0.770764
Si Si3 0.221403 0.776227 0.877732
Si Si4 0.353471 0.695514 0.760754
Si Si5 0.806936 0.639019 0.723976
Si Si6 0.645396 0.597625 0.423302
Si Si7 0.915036 0.991326 0.248861
Si Si8 0.253979 0.605719 0.551448
O O1 0.260932 0.042771 0.915436
O O2 0.974399 0.253459 0.700621
O O3 0.353402 0.110167 0.134009
O O4 0.000000 0.000000 0.000000
O O5 0.622158 0.726213 0.832357
O O6 0.500000 0.000000 0.500000
O O7 0.965889 0.890059 0.852186
O O8 0.343732 0.684030 0.906102
O O9 0.931086 0.756311 0.736570
O O10 0.188719 0.938793 0.742795
O O11 0.420518 0.710847 0.142299
O O12 0.295007 0.587943 0.729936
O O13 0.138177 0.846526 0.502406
O O14 0.797989 0.644057 0.570408
O O15 0.517052 0.642051 0.610265
O O16 0.000000 0.500000 0.000000
O O17 0.500000 0.500000 0.500000
O O18 0.793948 0.506252 0.469439
#
# Coordination Sequence:
#
# PCOD9013564 Si02
#       8
#     2   2   2   2   2   2   2   2
#     4   9  19  33  61  94 123 155 207 265 309 362
#     4   9  18  36  59  90 123 163 213 246 307 379
#     4  12  23  42  65  91 135 168 202 273 313 372
#     4  10  22  40  61  98 128 163 208 253 329 381
#     4  11  23  43  68  93 119 170 222 262 313 371
#     4  10  23  41  62  92 122 160 224 255 314 360
#     4   9  20  38  63  90 125 166 208 251 312 380
#     4  10  21  41  65  88 129 160 212 270 304 383
#
# _framework density 27.281226
#
# number of rings (size 3 to 8) (size 9 to 14) (size 15 to 20)
#    0.000    2.000    2.500    1.875    7.000    3.500 
#    4.500    1.250    0.000    0.000    0.000    0.000 
#    0.000    0.000    0.000    0.000    0.000    0.000 
#
# Total GULP energy -89397.485363 kJ/mol
# GULP energy per Si atom -5587.342835 kJ/mol
# Density = 2.721913 g / cm^3
# Si number density = 27.281226 Si / 1000 Ang^3
#
#
#
# Elastic Constant Matrix: (Units=GPa)
#
#
# Indices 1 2 3 4 5 6 
#
# 1 112.1999 29.2933 30.3208 8.0187 6.4755 -25.5819
# 2 29.2933 183.0128 73.6235 35.5649 -1.1107 -40.7304
# 3 30.3208 73.6235 128.8754 37.0063 -29.6429 -35.0720
# 4 8.0187 35.5649 37.0063 54.5888 -10.6918 -6.4385
# 5 6.4755 -1.1107 -29.6429 -10.6918 32.5240 7.1358
# 6 -25.5819 -40.7304 -35.0720 -6.4385 7.1358 60.9629
#
#
#
# Elastic Compliance Matrix: (Units=1/GPa)
#
#
# Indices 1 2 3 4 5 6 
#
# 1 0.010829 0.000329 -0.002901 -0.000532 -0.005779 0.003715
# 2 0.000329 0.008588 -0.004291 -0.003397 -0.005613 0.003706
# 3 -0.002901 -0.004291 0.016077 -0.004795 0.012815 0.003159
# 4 -0.000532 -0.003397 -0.004795 0.024330 0.004317 -0.003187
# 5 -0.005779 -0.005613 0.012815 0.004317 0.045613 -0.003686
# 6 0.003715 0.003706 0.003159 -0.003187 -0.003686 0.022350
#
#
# Mechanical properties :
#
#
# Convention : Reuss Voigt Hill
#
# Bulk Modulus (GPa) = 45.93683 76.72925 61.33304
# Shear Modulus (GPa) = 33.60864 49.00517 41.30691
#
# Velocity S-wave (km/s) = 3.51370 4.24287 3.89538
# Velocity P-wave (km/s) = 5.77375 7.22419 6.53931
#
# Compressibility (1/GPa) = 0.02176902
#
# Stress axis : x y z
#
# Youngs Moduli (GPa) = 92.34060 116.43590 62.19997
#
# Poissons Ratio (x) = -0.03830 0.18045
# Poissons Ratio (y) = -0.03037 0.26688
# Poissons Ratio (z) = 0.26790 0.49960
#
# Static dielectric constant tensor:
#      x y z
#    x 2.291360 -0.013900 0.007500 
#    y -0.013900 2.213570 0.075270 
#    z 0.007500 0.075270 2.191820 
# 
# From -- ./inp_files/397243.got.cif
#   From: 2010.05.17/outbox.cif.g08.bks.cpg/sg2_199_cif.got.tgz:397243.got - 2010.06.03 11:33:40.
