data_PCOD9013268
_publ_section_title
;
Structure prediction by ZEFSAII (Michael W. Deem and Ramdas Pophale) SiO2 
 PCOD9013268
Probable space group: P -1
;
_chemical_formula_sum "Si O2"
_cell_formula_units_Z 14
_cell_length_a 28.251939
_cell_length_b 5.583776
_cell_length_c 19.843362
_cell_angle_alpha 110.249767
_cell_angle_beta 168.291389
_cell_angle_gamma 67.924338
_cell_volume 584.678006
_symmetry_space_group_name_H-M "P -1"
_symmetry_group_IT_number 2
_symmetry_cell_setting 'triclinic'
loop_
_space_group_symop_operation_xyz
x,y,z
-x,-y,-z
loop_
_atom_site_type_symbol
_atom_site_label
_atom_site_fract_x
_atom_site_fract_y
_atom_site_fract_z
Si Si1 0.667492 0.267799 0.803235
Si Si2 0.586123 0.405130 0.036634
Si Si3 0.481029 0.024215 0.631956
Si Si4 0.855263 0.634537 0.201388
Si Si5 0.814920 0.322135 0.868258
Si Si6 0.490548 0.177629 0.147454
Si Si7 0.179043 0.520463 0.311716
O O1 0.583584 0.028541 0.699453
O O2 0.815678 0.239358 0.938920
O O3 0.421953 0.463479 0.460291
O O4 0.809770 0.381907 0.072344
O O5 0.871794 0.350706 0.422477
O O6 0.500000 0.500000 0.000000
O O7 0.497124 0.643689 0.883898
O O8 0.511919 0.125583 0.894078
O O9 0.407505 0.304428 0.589984
O O10 0.240966 0.911729 0.278306
O O11 0.684023 0.859073 0.942996
O O12 0.746265 0.683204 0.128721
O O13 0.040967 0.440347 0.175534
O O14 0.721765 0.217468 0.516234
O O15 0.000000 0.500000 0.000000
#
# Coordination Sequence:
#
# PCOD9013268 Si02
#       7
#     2   2   2   2   2   2   2
#     4  10  21  41  64 102 145 191 252 293 377 445
#     4  12  30  54  79 115 148 195 259 325 377 442
#     4  11  21  42  69 105 147 204 251 302 374 457
#     4  11  25  47  75 103 148 194 252 311 376 459
#     4  10  22  38  63 102 149 198 242 307 367 437
#     4  12  27  51  80 111 152 202 251 307 389 452
#     4  12  23  44  71 110 152 192 253 307 372 454
#
# _framework density 23.944804000000001
#
# number of rings (size 3 to 8) (size 9 to 14) (size 15 to 20)
#    0.000    0.857    2.857    3.857    4.000    1.143 
#    0.000    0.000    0.000    0.000    0.000    0.000 
#    0.000    0.000    0.000    0.000    0.000    0.000 
#
# Total GULP energy -78350.412076 kJ/mol
# GULP energy per Si atom -5596.458005 kJ/mol
# Density = 2.389030 g / cm^3
# Si number density = 23.944804 Si / 1000 Ang^3
#
#
#
# Elastic Constant Matrix: (Units=GPa)
#
#
# Indices 1 2 3 4 5 6 
#
# 1 152.4578 37.1288 31.5411 17.7016 16.8165 18.2629
# 2 37.1288 105.1429 51.1545 33.3152 -7.1838 -2.4881
# 3 31.5411 51.1545 116.1284 35.1903 8.8864 -1.5102
# 4 17.7016 33.3152 35.1903 42.2333 5.0808 -5.7961
# 5 16.8165 -7.1838 8.8864 5.0808 32.7504 4.4224
# 6 18.2629 -2.4881 -1.5102 -5.7961 4.4224 39.6881
#
#
#
# Elastic Compliance Matrix: (Units=1/GPa)
#
#
# Indices 1 2 3 4 5 6 
#
# 1 0.008344 -0.002790 -0.000500 -0.000893 -0.004122 -0.003705
# 2 -0.002790 0.015760 -0.004103 -0.008726 0.007353 0.000022
# 3 -0.000500 -0.004103 0.012893 -0.006962 -0.003033 -0.000216
# 4 -0.000893 -0.008726 -0.006962 0.038304 -0.006305 0.005895
# 5 -0.004122 0.007353 -0.003033 -0.006305 0.036434 -0.002738
# 6 -0.003705 0.000022 -0.000216 0.005895 -0.002738 0.028060
#
#
# Mechanical properties :
#
#
# Convention : Reuss Voigt Hill
#
# Bulk Modulus (GPa) = 45.01943 68.15309 56.58626
# Shear Modulus (GPa) = 30.86725 39.86134 35.36429
#
# Velocity S-wave (km/s) = 3.59430 4.08452 3.84723
# Velocity P-wave (km/s) = 6.00562 7.12522 6.58924
#
# Compressibility (1/GPa) = 0.02221263
#
# Stress axis : x y z
#
# Youngs Moduli (GPa) = 119.84524 63.45242 77.56146
#
# Poissons Ratio (x) = 0.17702 0.03875
# Poissons Ratio (y) = 0.33435 0.31821
# Poissons Ratio (z) = 0.05987 0.26033
#
# Static dielectric constant tensor:
#      x y z
#    x 1.971660 0.014000 -0.026840 
#    y 0.014000 1.953500 0.039700 
#    z -0.026840 0.039700 1.913940 
# 
# From -- ./inp_files/188110.got.cif
#   From: 2010.05.17/outbox.cif.g08.bks.cpg/sg2_95_cif.got.tgz:188110.got - 2010.06.03 11:33:40.
