data_PCOD9013967
_publ_section_title
;
Structure prediction by ZEFSAII (Michael W. Deem and Ramdas Pophale) SiO2 
 PCOD9013967
Probable space group: P -1
;
_chemical_formula_sum "Si O2"
_cell_formula_units_Z 12
_cell_length_a 9.890908
_cell_length_b 13.549962
_cell_length_c 5.316404
_cell_angle_alpha 119.960216
_cell_angle_beta 111.120697
_cell_angle_gamma 57.598454
_cell_volume 516.990384
_symmetry_space_group_name_H-M "P -1"
_symmetry_group_IT_number 2
_symmetry_cell_setting 'triclinic'
loop_
_space_group_symop_operation_xyz
x,y,z
-x,-y,-z
loop_
_atom_site_type_symbol
_atom_site_label
_atom_site_fract_x
_atom_site_fract_y
_atom_site_fract_z
Si Si1 0.309892 0.261633 0.448816
Si Si2 0.202486 0.982466 0.853005
Si Si3 0.563607 0.815617 0.061933
Si Si4 0.983261 0.400119 0.673744
Si Si5 0.054656 0.123910 0.437022
Si Si6 0.385232 0.436572 0.419157
O O1 0.326511 0.187702 0.105349
O O2 0.412053 0.342015 0.554593
O O3 0.126090 0.358156 0.510387
O O4 0.385229 0.163912 0.602701
O O5 0.174861 0.032181 0.611375
O O6 0.384218 0.901612 0.962871
O O7 0.107804 0.894607 0.684803
O O8 0.117468 0.087772 0.147112
O O9 0.600341 0.666626 0.914339
O O10 0.018277 0.266884 0.655418
O O11 0.798283 0.459460 0.539657
O O12 0.000000 0.500000 0.000000
O O13 0.500000 0.500000 0.500000
#
# Coordination Sequence:
#
# PCOD9013967 Si02
#       6
#     2   2   2   2   2   2
#     4  10  23  40  64  96 137 175 220 272 353 403
#     4  10  21  46  66 103 133 174 239 291 326 415
#     4  10  21  41  66  92 133 173 220 288 330 398
#     4  12  23  47  68 102 145 183 226 284 348 428
#     4  10  24  40  72  97 135 185 227 280 355 391
#     4  10  23  40  67  99 129 181 230 281 336 399
#
# _framework density 23.211265999999998
#
# number of rings (size 3 to 8) (size 9 to 14) (size 15 to 20)
#    1.000    0.667    1.667    2.500    0.000    4.667 
#    0.000    5.000    0.000    0.000    0.000    0.000 
#    0.000    0.000    0.000    0.000    0.000    0.000 
#
# Total GULP energy -66988.381328 kJ/mol
# GULP energy per Si atom -5582.365111 kJ/mol
# Density = 2.315844 g / cm^3
# Si number density = 23.211266 Si / 1000 Ang^3
#
#
#
# Elastic Constant Matrix: (Units=GPa)
#
#
# Indices 1 2 3 4 5 6 
#
# 1 131.6204 40.9546 47.6431 -4.4341 1.6668 4.1389
# 2 40.9546 93.1216 28.2302 -10.7399 -0.7027 -4.8109
# 3 47.6431 28.2302 100.9457 -16.9428 -5.4410 11.7612
# 4 -4.4341 -10.7399 -16.9428 45.9185 11.5353 -0.0559
# 5 1.6668 -0.7027 -5.4410 11.5353 35.2555 -3.3724
# 6 4.1389 -4.8109 11.7612 -0.0559 -3.3724 39.0606
#
#
#
# Elastic Compliance Matrix: (Units=1/GPa)
#
#
# Indices 1 2 3 4 5 6 
#
# 1 0.010079 -0.003369 -0.004000 -0.001080 -0.000841 -0.000353
# 2 -0.003369 0.013222 -0.002076 0.002088 -0.000333 0.002585
# 3 -0.004000 -0.002076 0.013520 0.003970 0.000567 -0.003848
# 4 -0.001080 0.002088 0.003970 0.025586 -0.007806 -0.001461
# 5 -0.000841 -0.000333 0.000567 -0.007806 0.031285 0.002567
# 6 -0.000353 0.002585 -0.003848 -0.001461 0.002567 0.027335
#
#
# Mechanical properties :
#
#
# Convention : Reuss Voigt Hill
#
# Bulk Modulus (GPa) = 55.77318 62.14926 58.96122
# Shear Modulus (GPa) = 34.27136 37.97093 36.12115
#
# Velocity S-wave (km/s) = 3.84669 4.04899 3.94914
# Velocity P-wave (km/s) = 6.61891 6.97802 6.80084
#
# Compressibility (1/GPa) = 0.01792976
#
# Stress axis : x y z
#
# Youngs Moduli (GPa) = 99.21244 75.63373 73.96379
#
# Poissons Ratio (x) = 0.25483 0.29589
# Poissons Ratio (y) = 0.33427 0.15355
# Poissons Ratio (z) = 0.39689 0.15702
#
# Static dielectric constant tensor:
#      x y z
#    x 1.896360 0.039470 0.001820 
#    y 0.039470 1.890240 -0.002020 
#    z 0.001820 -0.002020 1.948330 
# 
# From -- ./inp_files/30835.got.cif
#   From: 2010.05.17/outbox.cif.g08.bks.cpg/sg2_16_cif.got.tgz:30835.got - 2010.06.03 11:33:40.
