data_PCOD9013347
_publ_section_title
;
Structure prediction by ZEFSAII (Michael W. Deem and Ramdas Pophale) SiO2 
 PCOD9013347
Probable space group: P -1
;
_chemical_formula_sum "Si O2"
_cell_formula_units_Z 16
_cell_length_a 26.513404
_cell_length_b 11.685557
_cell_length_c 6.781006
_cell_angle_alpha 139.759050
_cell_angle_beta 52.602593
_cell_angle_gamma 148.874222
_cell_volume 694.844053
_symmetry_space_group_name_H-M "P -1"
_symmetry_group_IT_number 2
_symmetry_cell_setting 'triclinic'
loop_
_space_group_symop_operation_xyz
x,y,z
-x,-y,-z
loop_
_atom_site_type_symbol
_atom_site_label
_atom_site_fract_x
_atom_site_fract_y
_atom_site_fract_z
Si Si1 0.140483 0.048182 0.440869
Si Si2 0.630585 0.191433 0.740154
Si Si3 0.051356 0.282678 0.342032
Si Si4 0.550640 0.448688 0.693162
Si Si5 0.682133 0.699979 0.371041
Si Si6 0.235091 0.703225 0.711853
Si Si7 0.799553 0.420329 0.935912
Si Si8 0.737740 0.876095 0.035967
O O1 0.221855 0.139853 0.515358
O O2 0.157760 0.295918 0.727534
O O3 0.166134 0.025513 0.134892
O O4 0.033181 0.784507 0.440337
O O5 0.679843 0.251218 0.490577
O O6 0.527455 0.872399 0.579233
O O7 0.633043 0.404962 0.048486
O O8 0.705898 0.267052 0.820971
O O9 0.132192 0.409988 0.484031
O O10 0.117009 0.495800 0.285154
O O11 0.000000 0.000000 0.000000
O O12 0.600430 0.619148 0.594892
O O13 0.500000 0.500000 0.000000
O O14 0.641887 0.576157 0.776216
O O15 0.717080 0.856211 0.288236
O O16 0.227795 0.729064 0.992212
O O17 0.256804 0.926676 0.831476
#
# Coordination Sequence:
#
# PCOD9013347 Si02
#       8
#     2   2   2   2   2   2   2   2
#     4   9  20  39  60  88 122 155 205 253 304 358
#     4  10  21  41  64  92 120 163 210 249 303 360
#     4   9  20  37  60  91 121 159 207 252 302 364
#     4  11  23  42  61  94 125 156 205 255 310 366
#     4  10  23  41  65  86 126 162 204 252 301 368
#     4  11  22  38  60  92 126 159 207 252 302 365
#     4   9  20  38  63  89 120 161 206 255 298 356
#     4  11  24  40  58  91 125 163 199 251 313 360
#
# _framework density 23.02675
#
# number of rings (size 3 to 8) (size 9 to 14) (size 15 to 20)
#    0.000    2.000    1.250    1.875    0.000    9.500 
#    0.000    1.250    0.000    0.000    0.000    0.000 
#    0.000    0.000    0.000    0.000    0.000    0.000 
#
# Total GULP energy -89441.573374 kJ/mol
# GULP energy per Si atom -5590.098336 kJ/mol
# Density = 2.297434 g / cm^3
# Si number density = 23.026750 Si / 1000 Ang^3
#
#
#
# Elastic Constant Matrix: (Units=GPa)
#
#
# Indices 1 2 3 4 5 6 
#
# 1 44.1424 48.2570 20.6569 -18.9145 0.4539 -18.7143
# 2 48.2570 158.1481 63.6604 -41.6164 12.7816 -2.6845
# 3 20.6569 63.6604 104.1494 -36.6079 4.2457 -9.1265
# 4 -18.9145 -41.6164 -36.6079 67.5100 -0.6321 0.5372
# 5 0.4539 12.7816 4.2457 -0.6321 37.1152 -8.5765
# 6 -18.7143 -2.6845 -9.1265 0.5372 -8.5765 32.5760
#
#
#
# Elastic Compliance Matrix: (Units=1/GPa)
#
#
# Indices 1 2 3 4 5 6 
#
# 1 0.060250 -0.018868 0.005101 0.007845 0.014108 0.038072
# 2 -0.018868 0.015094 -0.006079 0.000759 -0.007318 -0.013237
# 3 0.005101 -0.006079 0.014838 0.005692 0.002056 0.007034
# 4 0.007845 0.000759 0.005692 0.020524 0.000732 0.006018
# 5 0.014108 -0.007318 0.002056 0.000732 0.032936 0.016737
# 6 0.038072 -0.013237 0.007034 0.006018 0.016737 0.057756
#
#
# Mechanical properties :
#
#
# Convention : Reuss Voigt Hill
#
# Bulk Modulus (GPa) = 19.80499 63.50982 41.65741
# Shear Modulus (GPa) = 19.38596 39.03129 29.20862
#
# Velocity S-wave (km/s) = 2.90468 4.12155 3.56542
# Velocity P-wave (km/s) = 4.45748 7.09157 5.92281
#
# Compressibility (1/GPa) = 0.05049231
#
# Stress axis : x y z
#
# Youngs Moduli (GPa) = 16.59746 66.25270 67.39227
#
# Poissons Ratio (x) = 1.25003 -0.34378
# Poissons Ratio (y) = 0.31316 0.40965
# Poissons Ratio (z) = -0.08467 0.40273
#
# Static dielectric constant tensor:
#      x y z
#    x 1.840260 -0.009740 -0.020090 
#    y -0.009740 1.896980 -0.009820 
#    z -0.020090 -0.009820 1.931190 
# 
# From -- ./inp_files/98199.got.cif
#   From: 2010.05.17/outbox.cif.g08.bks.cpg/sg2_50_cif.got.tgz:98199.got - 2010.06.03 11:33:40.
