data_PCOD9013367
_publ_section_title
;
Structure prediction by ZEFSAII (Michael W. Deem and Ramdas Pophale) SiO2 
 PCOD9013367
Probable space group: P -1
;
_chemical_formula_sum "Si O2"
_cell_formula_units_Z 14
_cell_length_a 6.785359
_cell_length_b 17.154117
_cell_length_c 13.992319
_cell_angle_alpha 147.720905
_cell_angle_beta 49.502922
_cell_angle_gamma 117.906137
_cell_volume 648.115039
_symmetry_space_group_name_H-M "P -1"
_symmetry_group_IT_number 2
_symmetry_cell_setting 'triclinic'
loop_
_space_group_symop_operation_xyz
x,y,z
-x,-y,-z
loop_
_atom_site_type_symbol
_atom_site_label
_atom_site_fract_x
_atom_site_fract_y
_atom_site_fract_z
Si Si1 0.074917 0.857568 0.261413
Si Si2 0.030892 0.785594 0.554149
Si Si3 0.064522 0.872522 0.058921
Si Si4 0.467952 0.449283 0.814698
Si Si5 0.609794 0.643331 0.650937
Si Si6 0.326828 0.304175 0.098789
Si Si7 0.032166 0.346122 0.753197
O O1 0.977729 0.872054 0.197779
O O2 0.975815 0.728161 0.217432
O O3 0.391882 0.809925 0.108987
O O4 0.000000 0.000000 0.500000
O O5 0.849738 0.686723 0.561525
O O6 0.336709 0.703791 0.380836
O O7 0.955048 0.777499 0.458721
O O8 0.975138 0.955560 0.781277
O O9 0.365814 0.784348 0.867689
O O10 0.896292 0.781926 0.953117
O O11 0.642375 0.567891 0.853127
O O12 0.288020 0.419488 0.749938
O O13 0.241499 0.532828 0.045191
O O14 0.500000 0.500000 0.500000
O O15 0.702053 0.627174 0.715201
#
# Coordination Sequence:
#
# PCOD9013367 Si02
#       7
#     2   2   2   2   2   2   2
#     4  10  21  41  64  92 130 167 207 257 320 375
#     4  12  24  39  67  95 127 168 212 264 322 374
#     4  11  25  42  66  98 128 166 214 267 321 377
#     4  10  23  40  63  93 127 171 212 261 315 378
#     4  11  25  45  68  91 127 172 217 265 315 377
#     4  10  24  43  64  94 128 167 217 260 314 385
#     4  10  22  41  64  92 131 168 215 262 309 381
#
# _framework density 21.601103999999999
#
# number of rings (size 3 to 8) (size 9 to 14) (size 15 to 20)
#    0.000    1.429    1.429    2.571    2.000   11.429 
#    0.000    0.000    0.000    0.000    0.000    0.000 
#    0.000    0.000    0.000    0.000    0.000    0.000 
#
# Total GULP energy -78228.424341 kJ/mol
# GULP energy per Si atom -5587.744596 kJ/mol
# Density = 2.155194 g / cm^3
# Si number density = 21.601104 Si / 1000 Ang^3
#
#
#
# Elastic Constant Matrix: (Units=GPa)
#
#
# Indices 1 2 3 4 5 6 
#
# 1 70.8918 18.8009 35.7016 -0.6533 22.3805 14.7062
# 2 18.8009 66.3068 19.8650 -3.7696 -1.6026 12.4832
# 3 35.7016 19.8650 106.7024 16.4619 1.2114 8.7255
# 4 -0.6533 -3.7696 16.4619 31.9553 -3.6513 8.3793
# 5 22.3805 -1.6026 1.2114 -3.6513 28.0702 1.7343
# 6 14.7062 12.4832 8.7255 8.3793 1.7343 30.5101
#
#
#
# Elastic Compliance Matrix: (Units=1/GPa)
#
#
# Indices 1 2 3 4 5 6 
#
# 1 0.027975 -0.003895 -0.008310 0.004501 -0.020992 -0.009557
# 2 -0.003895 0.018749 -0.002592 0.005929 0.005491 -0.006993
# 3 -0.008310 -0.002592 0.013521 -0.007703 0.004704 0.003047
# 4 0.004501 0.005929 -0.007703 0.039961 0.003117 -0.013544
# 5 -0.020992 0.005491 0.004704 0.003117 0.052713 0.002674
# 6 -0.009557 -0.006993 0.003047 -0.013544 0.002674 0.042940
#
#
# Mechanical properties :
#
#
# Convention : Reuss Voigt Hill
#
# Bulk Modulus (GPa) = 32.62607 43.62624 38.12615
# Shear Modulus (GPa) = 21.21622 29.40934 25.31278
#
# Velocity S-wave (km/s) = 3.13738 3.69382 3.42691
# Velocity P-wave (km/s) = 5.31610 6.19940 5.77466
#
# Compressibility (1/GPa) = 0.03065034
#
# Stress axis : x y z
#
# Youngs Moduli (GPa) = 35.74616 53.33709 73.96151
#
# Poissons Ratio (x) = 0.20775 0.61459
# Poissons Ratio (y) = 0.13923 0.19174
# Poissons Ratio (z) = 0.29703 0.13827
#
# Static dielectric constant tensor:
#      x y z
#    x 1.787150 -0.025860 -0.001230 
#    y -0.025860 1.804270 0.004770 
#    z -0.001230 0.004770 1.797200 
# 
# From -- ./inp_files/72635.got.cif
#   From: 2010.05.17/outbox.cif.g08.bks.cpg/sg2_37_cif.got.tgz:72635.got - 2010.06.03 11:33:40.
