data_PCOD9013223
_publ_section_title
;
Structure prediction by ZEFSAII (Michael W. Deem and Ramdas Pophale) SiO2 
 PCOD9013223
Probable space group: P -1
;
_chemical_formula_sum "Si O2"
_cell_formula_units_Z 16
_cell_length_a 5.519753
_cell_length_b 12.716908
_cell_length_c 12.658331
_cell_angle_alpha 115.673476
_cell_angle_beta 118.269811
_cell_angle_gamma 68.999874
_cell_volume 692.049418
_symmetry_space_group_name_H-M "P -1"
_symmetry_group_IT_number 2
_symmetry_cell_setting 'triclinic'
loop_
_space_group_symop_operation_xyz
x,y,z
-x,-y,-z
loop_
_atom_site_type_symbol
_atom_site_label
_atom_site_fract_x
_atom_site_fract_y
_atom_site_fract_z
Si Si1 0.487414 0.569743 0.418448
Si Si2 0.978298 0.807452 0.903673
Si Si3 0.566158 0.034870 0.908576
Si Si4 0.087861 0.438610 0.830903
Si Si5 0.720483 0.422619 0.226996
Si Si6 0.172912 0.331035 0.009381
Si Si7 0.347974 0.835847 0.443264
Si Si8 0.321900 0.091875 0.655627
O O1 0.500000 0.500000 0.500000
O O2 0.728729 0.482348 0.366038
O O3 0.493623 0.710023 0.472524
O O4 0.195628 0.563677 0.292742
O O5 0.023226 0.682239 0.797208
O O6 0.895936 0.781598 0.995261
O O7 0.251086 0.864378 0.992454
O O8 0.749994 0.909982 0.851611
O O9 0.379193 0.077965 0.787064
O O10 0.500000 0.000000 0.000000
O O11 0.316468 0.462412 0.806326
O O12 0.055785 0.557681 0.947675
O O13 0.168870 0.334147 0.884641
O O14 0.457940 0.360501 0.127135
O O15 0.483945 0.843281 0.355539
O O16 0.009018 0.847315 0.390819
O O17 0.383516 0.956799 0.562975
#
# Coordination Sequence:
#
# PCOD9013223 Si02
#       8
#     2   2   2   2   2   2   2   2
#     4  11  26  43  65 101 139 182 233 293 356 424
#     4  10  23  39  63 103 137 182 225 275 363 424
#     4  11  25  42  67 104 138 183 231 300 364 425
#     4   9  20  36  59  89 127 174 220 266 339 407
#     4  10  21  41  63  96 137 178 225 277 353 424
#     4   9  18  37  59  89 129 171 217 271 329 416
#     4  10  25  50  75 107 134 194 249 301 359 418
#     4  10  25  50  78 102 142 187 249 307 354 421
#
# _framework density 23.119736
#
# number of rings (size 3 to 8) (size 9 to 14) (size 15 to 20)
#    0.000    2.000    0.000    1.125    7.000    6.500 
#    4.500    0.000    0.000    0.000    0.000    0.000 
#    0.000    0.000    0.000    0.000    0.000    0.000 
#
# Total GULP energy -89161.190175 kJ/mol
# GULP energy per Si atom -5572.574386 kJ/mol
# Density = 2.306711 g / cm^3
# Si number density = 23.119736 Si / 1000 Ang^3
#
#
#
# Elastic Constant Matrix: (Units=GPa)
#
#
# Indices 1 2 3 4 5 6 
#
# 1 84.5491 30.0477 31.1598 -1.6404 -19.3637 24.9401
# 2 30.0477 170.2689 67.3034 11.6419 -20.0077 2.9574
# 3 31.1598 67.3034 79.3103 -14.9551 -31.0688 -0.0178
# 4 -1.6404 11.6419 -14.9551 22.7323 0.5530 -6.5802
# 5 -19.3637 -20.0077 -31.0688 0.5530 32.9345 -2.3607
# 6 24.9401 2.9574 -0.0178 -6.5802 -2.3607 45.5537
#
#
#
# Elastic Compliance Matrix: (Units=1/GPa)
#
#
# Indices 1 2 3 4 5 6 
#
# 1 0.018420 0.001485 -0.009255 -0.008860 0.002337 -0.011343
# 2 0.001485 0.014315 -0.020946 -0.022350 -0.010210 -0.005508
# 3 -0.009255 -0.020946 0.058463 0.052224 0.037249 0.015924
# 4 -0.008860 -0.022350 0.052224 0.094658 0.030436 0.021573
# 5 0.002337 -0.010210 0.037249 0.030436 0.060660 0.006938
# 6 -0.011343 -0.005508 0.015924 0.021573 0.006938 0.032002
#
#
# Mechanical properties :
#
#
# Convention : Reuss Voigt Hill
#
# Bulk Modulus (GPa) = 29.61591 65.68334 47.64963
# Shear Modulus (GPa) = 14.40070 33.95194 24.17632
#
# Velocity S-wave (km/s) = 2.49845 3.83629 3.23724
# Velocity P-wave (km/s) = 4.60007 6.93503 5.88452
#
# Compressibility (1/GPa) = 0.03376563
#
# Stress axis : x y z
#
# Youngs Moduli (GPa) = 54.28911 69.85866 17.10481
#
# Poissons Ratio (x) = -0.10375 0.15830
# Poissons Ratio (y) = -0.08063 0.35828
# Poissons Ratio (z) = 0.50244 1.46327
#
# Static dielectric constant tensor:
#      x y z
#    x 1.917060 -0.063900 -0.006700 
#    y -0.063900 1.829050 0.087490 
#    z -0.006700 0.087490 1.792420 
# 
# From -- ./inp_files/365078.got.cif
#   From: 2010.05.17/outbox.cif.g08.bks.cpg/sg2_183_cif.got.tgz:365078.got - 2010.06.03 11:33:40.
