data_PCOD9013197
_publ_section_title
;
Structure prediction by ZEFSAII (Michael W. Deem and Ramdas Pophale) SiO2 
 PCOD9013197
Probable space group: P -1
;
_chemical_formula_sum "Si O2"
_cell_formula_units_Z 16
_cell_length_a 7.937796
_cell_length_b 13.459488
_cell_length_c 15.071790
_cell_angle_alpha 55.629817
_cell_angle_beta 122.753585
_cell_angle_gamma 150.215112
_cell_volume 655.089106
_symmetry_space_group_name_H-M "P -1"
_symmetry_group_IT_number 2
_symmetry_cell_setting 'triclinic'
loop_
_space_group_symop_operation_xyz
x,y,z
-x,-y,-z
loop_
_atom_site_type_symbol
_atom_site_label
_atom_site_fract_x
_atom_site_fract_y
_atom_site_fract_z
Si Si1 0.872487 0.535334 0.808087
Si Si2 0.778110 0.735023 0.938264
Si Si3 0.300994 0.972493 0.702450
Si Si4 0.784386 0.039229 0.891238
Si Si5 0.742493 0.267604 0.517895
Si Si6 0.810611 0.695565 0.289719
Si Si7 0.401960 0.272956 0.294464
Si Si8 0.875061 0.303086 0.016621
O O1 0.515239 0.385177 0.734524
O O2 0.948362 0.432049 0.893903
O O3 0.150273 0.766203 0.736981
O O4 0.846368 0.558283 0.894509
O O5 0.907617 0.842219 0.014798
O O6 0.108010 0.822605 0.951466
O O7 0.500000 0.500000 0.000000
O O8 0.633285 0.741271 0.813806
O O9 0.976255 0.884527 0.693848
O O10 0.607890 0.087501 0.800149
O O11 0.463918 0.116800 0.592341
O O12 0.951368 0.110640 0.805431
O O13 0.460804 0.825779 0.958556
O O14 0.558169 0.225076 0.399124
O O15 0.000000 0.500000 0.500000
O O16 0.967802 0.256219 0.593475
O O17 0.642778 0.500633 0.284547
#
# Coordination Sequence:
#
# PCOD9013197 Si02
#       8
#     2   2   2   2   2   2   2   2
#     4   9  17  32  49  70  99 131 166 194 249 289
#     4  12  20  32  49  70 109 131 160 201 241 297
#     4   9  17  31  50  72 102 128 156 210 243 291
#     4  10  18  29  47  73 103 131 158 197 250 285
#     4   9  18  28  48  74 103 120 162 203 253 296
#     4   9  16  31  46  71 102 125 157 208 242 285
#     4  10  17  30  45  73  99 132 159 193 253 290
#     4  10  19  30  48  71  99 135 163 198 238 301
#
# _framework density 24.424157000000001
#
# number of rings (size 3 to 8) (size 9 to 14) (size 15 to 20)
#    0.000    2.250    5.000    0.750    0.000    0.500 
#    0.000    2.500    0.000    0.000    0.000    5.250 
#    0.000    0.000    0.000    0.000    0.000    0.000 
#
# Total GULP energy -89211.809517 kJ/mol
# GULP energy per Si atom -5575.738095 kJ/mol
# Density = 2.436857 g / cm^3
# Si number density = 24.424157 Si / 1000 Ang^3
#
#
#
# Elastic Constant Matrix: (Units=GPa)
#
#
# Indices 1 2 3 4 5 6 
#
# 1 40.4679 19.1995 26.9671 5.5202 6.0897 5.6155
# 2 19.1995 99.4968 62.0992 -11.8454 -4.2873 22.5621
# 3 26.9671 62.0992 230.3909 9.7516 22.7784 11.0951
# 4 5.5202 -11.8454 9.7516 48.0293 11.7316 -0.3739
# 5 6.0897 -4.2873 22.7784 11.7316 18.2544 0.5538
# 6 5.6155 22.5621 11.0951 -0.3739 0.5538 34.7166
#
#
#
# Elastic Compliance Matrix: (Units=1/GPa)
#
#
# Indices 1 2 3 4 5 6 
#
# 1 0.029746 -0.005611 -0.001003 -0.002574 -0.008313 -0.000740
# 2 -0.005611 0.016714 -0.004520 0.003274 0.009595 -0.008628
# 3 -0.001003 -0.004520 0.006493 -0.000170 -0.008755 0.001163
# 4 -0.002574 0.003274 -0.000170 0.025493 -0.014509 -0.001151
# 5 -0.008313 0.009595 -0.008755 -0.014509 0.080164 -0.003528
# 6 -0.000740 -0.008628 0.001163 -0.001151 -0.003528 0.034204
#
#
# Mechanical properties :
#
#
# Convention : Reuss Voigt Hill
#
# Bulk Modulus (GPa) = 32.58898 65.20968 48.89933
# Shear Modulus (GPa) = 22.19150 37.67271 29.93211
#
# Velocity S-wave (km/s) = 3.01755 3.93165 3.50453
# Velocity P-wave (km/s) = 5.05101 6.88239 6.03655
#
# Compressibility (1/GPa) = 0.03068521
#
# Stress axis : x y z
#
# Youngs Moduli (GPa) = 33.61790 59.82939 154.01191
#
# Poissons Ratio (x) = 0.33570 0.15446
# Poissons Ratio (y) = 0.18863 0.69615
# Poissons Ratio (z) = 0.03372 0.27044
#
# Static dielectric constant tensor:
#      x y z
#    x 2.054680 -0.049420 0.058420 
#    y -0.049420 2.062340 0.036480 
#    z 0.058420 0.036480 1.941760 
# 
# From -- ./inp_files/252561.got.cif
#   From: 2010.05.17/outbox.cif.g08.bks.cpg/sg2_127_cif.got.tgz:252561.got - 2010.06.03 11:33:40.
