data_PCOD9013307
_publ_section_title
;
Structure prediction by ZEFSAII (Michael W. Deem and Ramdas Pophale) SiO2 
 PCOD9013307
Probable space group: P -1
;
_chemical_formula_sum "Si O2"
_cell_formula_units_Z 16
_cell_length_a 24.902582
_cell_length_b 6.211448
_cell_length_c 18.222071
_cell_angle_alpha 88.286193
_cell_angle_beta 159.389496
_cell_angle_gamma 79.676791
_cell_volume 801.562714
_symmetry_space_group_name_H-M "P -1"
_symmetry_group_IT_number 2
_symmetry_cell_setting 'triclinic'
loop_
_space_group_symop_operation_xyz
x,y,z
-x,-y,-z
loop_
_atom_site_type_symbol
_atom_site_label
_atom_site_fract_x
_atom_site_fract_y
_atom_site_fract_z
Si Si1 0.884906 0.250558 0.253795
Si Si2 0.989702 0.486348 0.258760
Si Si3 0.277108 0.694603 0.802614
Si Si4 0.606231 0.713111 0.176733
Si Si5 0.022855 0.171188 0.969205
Si Si6 0.835160 0.282300 0.948287
Si Si7 0.282400 0.329030 0.343868
Si Si8 0.698337 0.109531 0.895239
O O1 0.928131 0.417985 0.256026
O O2 0.768861 0.383695 0.178670
O O3 0.770068 0.174442 0.058340
O O4 0.088500 0.983362 0.537999
O O5 0.208397 0.365257 0.542914
O O6 0.951602 0.353921 0.145101
O O7 0.855135 0.803774 0.078146
O O8 0.320390 0.497753 0.793604
O O9 0.456329 0.705155 0.033655
O O10 0.500000 0.000000 0.000000
O O11 0.851361 0.476952 0.762776
O O12 0.208510 0.158366 0.224104
O O13 0.041082 0.020997 0.919982
O O14 0.000000 0.000000 0.000000
O O15 0.751325 0.481514 0.770073
O O16 0.687108 0.296818 0.814241
O O17 0.497839 0.161315 0.644769
#
# Coordination Sequence:
#
# PCOD9013307 Si02
#       8
#     2   2   2   2   2   2   2   2
#     4  10  22  42  61  93 122 165 203 262 306 373
#     4  11  23  39  63  93 130 160 211 256 315 366
#     4  10  22  41  68  86 124 162 210 254 315 368
#     4  11  22  41  65  95 121 165 207 257 311 381
#     4   9  20  40  62  85 120 159 207 255 301 367
#     4  10  22  39  65  90 122 166 202 260 304 368
#     4  10  21  41  64  90 120 171 206 250 316 361
#     4  11  23  40  62  91 129 156 211 258 303 371
#
# _framework density 19.961010000000002
#
# number of rings (size 3 to 8) (size 9 to 14) (size 15 to 20)
#    0.000    1.750    2.500    1.125    0.000    7.500 
#   11.250    0.000    0.000    0.000    0.000    0.000 
#    0.000    0.000    0.000    0.000    0.000    0.000 
#
# Total GULP energy -89332.781084 kJ/mol
# GULP energy per Si atom -5583.298818 kJ/mol
# Density = 1.991558 g / cm^3
# Si number density = 19.961010 Si / 1000 Ang^3
#
#
#
# Elastic Constant Matrix: (Units=GPa)
#
#
# Indices 1 2 3 4 5 6 
#
# 1 84.4192 3.7663 22.9718 5.8063 4.1297 -0.2324
# 2 3.7663 51.8599 21.7903 11.9124 -0.9464 6.6442
# 3 22.9718 21.7903 135.3984 22.4195 16.0901 6.4525
# 4 5.8063 11.9124 22.4195 24.3329 2.3908 -0.2732
# 5 4.1297 -0.9464 16.0901 2.3908 18.5122 -0.8448
# 6 -0.2324 6.6442 6.4525 -0.2732 -0.8448 25.9132
#
#
#
# Elastic Compliance Matrix: (Units=1/GPa)
#
#
# Indices 1 2 3 4 5 6 
#
# 1 0.012475 0.000058 -0.001829 -0.001215 -0.001010 0.000507
# 2 0.000058 0.023272 -0.002408 -0.009668 0.004275 -0.005329
# 3 -0.001829 -0.002408 0.010308 -0.007136 -0.007858 -0.002297
# 4 -0.001215 -0.009668 -0.007136 0.052809 -0.000623 0.004781
# 5 -0.001010 0.004275 -0.007858 -0.000623 0.061503 0.002850
# 6 0.000507 -0.005329 -0.002297 0.004781 0.002850 0.040677
#
#
# Mechanical properties :
#
#
# Convention : Reuss Voigt Hill
#
# Bulk Modulus (GPa) = 26.52686 40.97046 33.74866
# Shear Modulus (GPa) = 22.52577 28.62828 25.57702
#
# Velocity S-wave (km/s) = 3.36294 3.79120 3.58348
# Velocity P-wave (km/s) = 5.32892 6.30350 5.83659
#
# Compressibility (1/GPa) = 0.03769764
#
# Stress axis : x y z
#
# Youngs Moduli (GPa) = 80.15976 42.97005 97.00873
#
# Poissons Ratio (x) = -0.00250 0.17740
# Poissons Ratio (y) = -0.00467 0.23364
# Poissons Ratio (z) = 0.14659 0.10349
#
# Static dielectric constant tensor:
#      x y z
#    x 1.743580 0.011720 0.001250 
#    y 0.011720 1.702080 -0.003200 
#    z 0.001250 -0.003200 1.679100 
# 
# From -- ./inp_files/38975.got.cif
#   From: 2010.05.17/outbox.cif.g08.bks.cpg/sg2_20_cif.got.tgz:38975.got - 2010.06.03 11:33:40.
