data_PCOD9013718
_publ_section_title
;
Structure prediction by ZEFSAII (Michael W. Deem and Ramdas Pophale) SiO2 
 PCOD9013718
Probable space group: P -1
;
_chemical_formula_sum "Si O2"
_cell_formula_units_Z 16
_cell_length_a 11.489852
_cell_length_b 8.872870
_cell_length_c 9.388624
_cell_angle_alpha 43.903851
_cell_angle_beta 79.745910
_cell_angle_gamma 87.663118
_cell_volume 647.745471
_symmetry_space_group_name_H-M "P -1"
_symmetry_group_IT_number 2
_symmetry_cell_setting 'triclinic'
loop_
_space_group_symop_operation_xyz
x,y,z
-x,-y,-z
loop_
_atom_site_type_symbol
_atom_site_label
_atom_site_fract_x
_atom_site_fract_y
_atom_site_fract_z
Si Si1 0.747767 0.880663 0.517583
Si Si2 0.882714 0.964487 0.717518
Si Si3 0.627284 0.449665 0.437765
Si Si4 0.952606 0.591209 0.598483
Si Si5 0.385307 0.825521 0.120188
Si Si6 0.905188 0.188993 0.101538
Si Si7 0.800986 0.890144 0.107500
Si Si8 0.483954 0.426567 0.216562
O O1 0.789689 0.899841 0.658312
O O2 0.828908 0.702116 0.555012
O O3 0.609655 0.791256 0.598531
O O4 0.786527 0.110447 0.272252
O O5 0.991990 0.818439 0.798242
O O6 0.833862 0.917052 0.917963
O O7 0.944707 0.212569 0.517466
O O8 0.500000 0.500000 0.500000
O O9 0.660749 0.250692 0.660860
O O10 0.729269 0.651189 0.303521
O O11 0.598287 0.411622 0.303458
O O12 0.000000 0.500000 0.500000
O O13 0.930909 0.398320 0.852204
O O14 0.420892 0.619708 0.169752
O O15 0.500000 0.000000 0.000000
O O16 0.292812 0.937066 0.972626
O O17 0.903062 0.981600 0.132945
O O18 0.500000 0.500000 0.000000
#
# Coordination Sequence:
#
# PCOD9013718 Si02
#       8
#     2   2   2   2   2   2   2   2
#     4  11  26  43  66  98 138 178 216 270 339 387
#     4  11  26  43  65 100 137 173 216 276 329 395
#     4  10  21  41  65  94 131 173 218 272 329 387
#     4  11  23  43  67  99 128 169 227 273 324 394
#     4  11  23  41  68  95 129 171 224 274 321 387
#     4  11  23  42  71  95 134 173 221 273 328 394
#     4  12  22  40  69  98 130 174 224 270 327 393
#     4  11  23  45  70  96 137 179 218 273 331 394
#
# _framework density 24.701059000000001
#
# number of rings (size 3 to 8) (size 9 to 14) (size 15 to 20)
#    0.000    1.000    3.750    4.875    1.750    4.000 
#    0.000    3.125    0.000    0.000    0.000    0.000 
#    0.000    0.000    0.000    0.000    0.000    0.000 
#
# Total GULP energy -89487.631275 kJ/mol
# GULP energy per Si atom -5592.976955 kJ/mol
# Density = 2.464484 g / cm^3
# Si number density = 24.701059 Si / 1000 Ang^3
#
#
#
# Elastic Constant Matrix: (Units=GPa)
#
#
# Indices 1 2 3 4 5 6 
#
# 1 39.0517 22.2314 3.1616 -3.5382 1.6987 18.8999
# 2 22.2314 77.1841 41.5456 20.8965 7.0828 21.4073
# 3 3.1616 41.5456 181.7668 -8.8843 -5.1104 17.9163
# 4 -3.5382 20.8965 -8.8843 52.3371 8.4347 0.9701
# 5 1.6987 7.0828 -5.1104 8.4347 36.1123 4.9820
# 6 18.8999 21.4073 17.9163 0.9701 4.9820 34.9150
#
#
#
# Elastic Compliance Matrix: (Units=1/GPa)
#
#
# Indices 1 2 3 4 5 6 
#
# 1 0.041043 -0.011436 0.004086 0.008131 0.001438 -0.017733
# 2 -0.011436 0.023507 -0.005250 -0.010695 -0.001628 -0.004999
# 3 0.004086 -0.005250 0.007129 0.003402 0.001459 -0.002954
# 4 0.008131 -0.010695 0.003402 0.025096 -0.003698 0.000240
# 5 0.001438 -0.001628 0.001459 -0.003698 0.029656 -0.004658
# 6 -0.017733 -0.004999 -0.002954 0.000240 -0.004658 0.043479
#
#
# Mechanical properties :
#
#
# Convention : Reuss Voigt Hill
#
# Bulk Modulus (GPa) = 21.51502 47.98666 34.75084
# Shear Modulus (GPa) = 23.74145 40.07715 31.90930
#
# Velocity S-wave (km/s) = 3.10361 4.03238 3.59809
# Velocity P-wave (km/s) = 4.64459 6.41477 5.60007
#
# Compressibility (1/GPa) = 0.04647916
#
# Stress axis : x y z
#
# Youngs Moduli (GPa) = 24.36472 42.54045 140.27520
#
# Poissons Ratio (x) = 0.48648 -0.57312
# Poissons Ratio (y) = 0.27863 0.73641
# Poissons Ratio (z) = -0.09955 0.22333
#
# Static dielectric constant tensor:
#      x y z
#    x 2.076700 -0.033800 0.014460 
#    y -0.033800 1.977820 0.021660 
#    z 0.014460 0.021660 2.003600 
# 
# From -- ./inp_files/294066.got.cif
#   From: 2010.05.17/outbox.cif.g08.bks.cpg/sg2_148_cif.got.tgz:294066.got - 2010.06.03 11:33:40.
