data_PCOD9013339
_publ_section_title
;
Structure prediction by ZEFSAII (Michael W. Deem and Ramdas Pophale) SiO2 
 PCOD9013339
Probable space group: P -1
;
_chemical_formula_sum "Si O2"
_cell_formula_units_Z 16
_cell_length_a 9.775203
_cell_length_b 21.798946
_cell_length_c 19.169878
_cell_angle_alpha 27.656819
_cell_angle_beta 23.434126
_cell_angle_gamma 28.807359
_cell_volume 707.963641
_symmetry_space_group_name_H-M "P -1"
_symmetry_group_IT_number 2
_symmetry_cell_setting 'triclinic'
loop_
_space_group_symop_operation_xyz
x,y,z
-x,-y,-z
loop_
_atom_site_type_symbol
_atom_site_label
_atom_site_fract_x
_atom_site_fract_y
_atom_site_fract_z
Si Si1 0.998012 0.340333 0.452713
Si Si2 0.082506 0.756265 0.032354
Si Si3 0.621730 0.620547 0.575417
Si Si4 0.521823 0.614489 0.478907
Si Si5 0.264835 0.901442 0.530907
Si Si6 0.714008 0.980575 0.345168
Si Si7 0.780149 0.529474 0.999435
Si Si8 0.833222 0.310358 0.098440
O O1 0.772412 0.459555 0.491916
O O2 0.798760 0.346092 0.466664
O O3 0.395454 0.354394 0.244229
O O4 0.055218 0.182975 0.608689
O O5 0.060246 0.916834 0.874748
O O6 0.023584 0.717612 0.018988
O O7 0.486103 0.673226 0.961494
O O8 0.772883 0.713935 0.260131
O O9 0.381233 0.627809 0.610599
O O10 0.566721 0.776319 0.471763
O O11 0.492920 0.553826 0.768046
O O12 0.000000 0.500000 0.500000
O O13 0.093266 0.821116 0.749450
O O14 0.415895 0.003251 0.401787
O O15 0.000000 0.000000 0.500000
O O16 0.500000 0.000000 0.500000
O O17 0.979564 0.427537 0.945294
O O18 0.000000 0.500000 0.000000
#
# Coordination Sequence:
#
# PCOD9013339 Si02
#       8
#     2   2   2   2   2   2   2   2
#     4  10  22  43  64  97 123 176 224 257 339 386
#     4  12  23  40  66 100 130 165 228 272 330 382
#     4  11  22  44  65  90 139 176 224 267 343 397
#     4  11  24  39  71  96 126 180 216 276 323 404
#     4  10  23  40  66  96 127 178 222 264 333 404
#     4  11  23  40  66  95 132 168 214 273 332 385
#     4  11  25  37  64  99 130 170 224 281 324 386
#     4  10  21  41  64  91 129 167 222 280 308 388
#
# _framework density 22.600027999999998
#
# number of rings (size 3 to 8) (size 9 to 14) (size 15 to 20)
#    0.000    1.250    5.000    1.875    7.000    1.500 
#    0.000    0.625    0.000    0.000    0.000    0.000 
#    0.000    0.000    0.000    0.000    0.000    0.000 
#
# Total GULP energy -89206.809792 kJ/mol
# GULP energy per Si atom -5575.425612 kJ/mol
# Density = 2.254859 g / cm^3
# Si number density = 22.600028 Si / 1000 Ang^3
#
#
#
# Elastic Constant Matrix: (Units=GPa)
#
#
# Indices 1 2 3 4 5 6 
#
# 1 175.4170 26.2255 7.1892 -11.9073 -1.0415 -3.6036
# 2 26.2255 40.7076 20.4663 -13.7600 -3.6220 -3.0476
# 3 7.1892 20.4663 71.0514 -20.6388 5.5548 3.7537
# 4 -11.9073 -13.7600 -20.6388 20.9046 8.8725 -5.9449
# 5 -1.0415 -3.6220 5.5548 8.8725 32.4511 -4.5014
# 6 -3.6036 -3.0476 3.7537 -5.9449 -4.5014 39.3905
#
#
#
# Elastic Compliance Matrix: (Units=1/GPa)
#
#
# Indices 1 2 3 4 5 6 
#
# 1 0.006444 -0.003868 0.001498 0.003303 -0.001316 0.000496
# 2 -0.003868 0.036184 -0.005235 0.017750 0.000749 0.005709
# 3 0.001498 -0.005235 0.023893 0.025984 -0.011725 0.000037
# 4 0.003303 0.017750 0.025984 0.102520 -0.028812 0.011379
# 5 -0.001316 0.000749 -0.011725 -0.028812 0.040934 0.001384
# 6 0.000496 0.005709 0.000037 0.011379 0.001384 0.027746
#
#
# Mechanical properties :
#
#
# Convention : Reuss Voigt Hill
#
# Bulk Modulus (GPa) = 19.48922 43.88199 31.68561
# Shear Modulus (GPa) = 18.51611 34.10223 26.30917
#
# Velocity S-wave (km/s) = 2.86544 3.88873 3.41562
# Velocity P-wave (km/s) = 4.42605 6.29459 5.44113
#
# Compressibility (1/GPa) = 0.05131041
#
# Stress axis : x y z
#
# Youngs Moduli (GPa) = 155.17787 27.63662 41.85291
#
# Poissons Ratio (x) = 0.10691 -0.06271
# Poissons Ratio (y) = 0.60029 0.21912
# Poissons Ratio (z) = -0.23252 0.14469
#
# Static dielectric constant tensor:
#      x y z
#    x 2.167460 0.046370 -0.143520 
#    y 0.046370 2.016800 0.051380 
#    z -0.143520 0.051380 1.994980 
# 
# From -- ./inp_files/562914.got.cif
#   From: 2010.05.17/outbox.cif.g08.bks.cpg/sg2_282_cif.got.tgz:562914.got - 2010.06.03 11:33:40.
