data_PCOD9013389
_publ_section_title
;
Structure prediction by ZEFSAII (Michael W. Deem and Ramdas Pophale) SiO2 
 PCOD9013389
Probable space group: P -1
;
_chemical_formula_sum "Si O2"
_cell_formula_units_Z 14
_cell_length_a 22.061362
_cell_length_b 5.757405
_cell_length_c 5.535971
_cell_angle_alpha 57.082919
_cell_angle_beta 83.181422
_cell_angle_gamma 104.074940
_cell_volume 544.696185
_symmetry_space_group_name_H-M "P -1"
_symmetry_group_IT_number 2
_symmetry_cell_setting 'triclinic'
loop_
_space_group_symop_operation_xyz
x,y,z
-x,-y,-z
loop_
_atom_site_type_symbol
_atom_site_label
_atom_site_fract_x
_atom_site_fract_y
_atom_site_fract_z
Si Si1 0.418846 0.270741 0.416768
Si Si2 0.547889 0.827447 0.045820
Si Si3 0.145310 0.634528 0.006724
Si Si4 0.697408 0.690207 0.812839
Si Si5 0.175548 0.269687 0.559779
Si Si6 0.980848 0.799786 0.871829
Si Si7 0.269063 0.677660 0.655246
O O1 0.495534 0.487798 0.261849
O O2 0.406735 0.130926 0.765711
O O3 0.361430 0.394944 0.308172
O O4 0.419366 0.091947 0.274675
O O5 0.500000 0.000000 0.000000
O O6 0.140672 0.487399 0.354950
O O7 0.098634 0.369154 0.011897
O O8 0.221850 0.750864 0.829999
O O9 0.129094 0.930596 0.818535
O O10 0.769157 0.715970 0.674272
O O11 0.680746 0.441236 0.166990
O O12 0.708101 0.029191 0.686595
O O13 0.220656 0.400687 0.691293
O O14 0.000000 0.000000 0.500000
O O15 0.000000 0.500000 0.000000
O O16 0.000000 0.000000 0.000000
#
# Coordination Sequence:
#
# PCOD9013389 Si02
#       7
#     2   2   2   2   2   2   2
#     4  10  23  39  61  92 122 161 219 268 324 402
#     4  10  22  41  62  86 122 169 213 260 336 393
#     4  10  23  40  67  93 133 179 221 283 338 410
#     4  10  23  38  60  97 122 163 216 275 331 399
#     4  10  21  41  64  93 128 171 223 267 349 406
#     4  12  28  49  74 113 148 193 250 302 361 428
#     4  10  22  40  63  92 128 167 219 267 344 404
#
# _framework density 25.702400999999998
#
# number of rings (size 3 to 8) (size 9 to 14) (size 15 to 20)
#    0.000    1.714    0.000    2.571    8.000    1.143 
#    0.000    0.000    0.000    0.000    0.000    0.000 
#    0.000    0.000    0.000    0.000    0.000    0.000 
#
# Total GULP energy -78028.517492 kJ/mol
# GULP energy per Si atom -5573.465535 kJ/mol
# Density = 2.564390 g / cm^3
# Si number density = 25.702401 Si / 1000 Ang^3
#
#
#
# Elastic Constant Matrix: (Units=GPa)
#
#
# Indices 1 2 3 4 5 6 
#
# 1 63.5467 17.2617 34.8574 -1.4938 1.7298 4.3029
# 2 17.2617 108.7418 74.4735 11.6058 -1.4299 10.2777
# 3 34.8574 74.4735 199.1362 -0.0344 21.5207 -7.6867
# 4 -1.4938 11.6058 -0.0344 42.1246 10.1950 6.4632
# 5 1.7298 -1.4299 21.5207 10.1950 29.6995 -3.1257
# 6 4.3029 10.2777 -7.6867 6.4632 -3.1257 41.3083
#
#
#
# Elastic Compliance Matrix: (Units=1/GPa)
#
#
# Indices 1 2 3 4 5 6 
#
# 1 0.017733 -0.000629 -0.003016 0.001039 0.000516 -0.002375
# 2 -0.000629 0.014443 -0.006132 -0.005076 0.006562 -0.003378
# 3 -0.003016 -0.006132 0.008715 0.002953 -0.007190 0.002455
# 4 0.001039 -0.005076 0.002953 0.028839 -0.012741 -0.003772
# 5 0.000516 0.006562 -0.007190 -0.012741 0.043780 0.002282
# 6 -0.002375 -0.003378 0.002455 -0.003772 0.002282 0.026516
#
#
# Mechanical properties :
#
#
# Convention : Reuss Voigt Hill
#
# Bulk Modulus (GPa) = 46.86623 69.40108 58.13366
# Shear Modulus (GPa) = 29.99546 38.94862 34.47204
#
# Velocity S-wave (km/s) = 3.41989 3.89700 3.66621
# Velocity P-wave (km/s) = 5.81962 6.87817 6.37092
#
# Compressibility (1/GPa) = 0.02133733
#
# Stress axis : x y z
#
# Youngs Moduli (GPa) = 56.39222 69.23950 114.74425
#
# Poissons Ratio (x) = 0.04355 0.34607
# Poissons Ratio (y) = 0.03547 0.70357
# Poissons Ratio (z) = 0.17008 0.42455
#
# Static dielectric constant tensor:
#      x y z
#    x 2.264130 0.106070 -0.169010 
#    y 0.106070 2.158080 -0.106210 
#    z -0.169010 -0.106210 2.235020 
# 
# From -- ./inp_files/11240.got.cif
#   From: 2010.05.17/outbox.cif.g08.bks.cpg/sg2_6_cif.got.tgz:11240.got - 2010.06.03 11:33:40.
