data_PCOD9013166
_publ_section_title
;
Structure prediction by ZEFSAII (Michael W. Deem and Ramdas Pophale) SiO2 
 PCOD9013166
Probable space group: P -1
;
_chemical_formula_sum "Si O2"
_cell_formula_units_Z 16
_cell_length_a 15.387547
_cell_length_b 6.808829
_cell_length_c 11.507509
_cell_angle_alpha 96.737277
_cell_angle_beta 58.131382
_cell_angle_gamma 58.672520
_cell_volume 736.087831
_symmetry_space_group_name_H-M "P -1"
_symmetry_group_IT_number 2
_symmetry_cell_setting 'triclinic'
loop_
_space_group_symop_operation_xyz
x,y,z
-x,-y,-z
loop_
_atom_site_type_symbol
_atom_site_label
_atom_site_fract_x
_atom_site_fract_y
_atom_site_fract_z
Si Si1 0.003017 0.228519 0.015810
Si Si2 0.469387 0.533462 0.721017
Si Si3 0.501539 0.225311 0.475213
Si Si4 0.274591 0.051379 0.394186
Si Si5 0.328839 0.237168 0.150717
Si Si6 0.857787 0.121569 0.672978
Si Si7 0.818840 0.777089 0.276990
Si Si8 0.797258 0.953741 0.922785
O O1 0.063726 0.229000 0.852340
O O2 0.853277 0.524817 0.172789
O O3 0.104533 0.180800 0.042153
O O4 0.000000 0.000000 0.000000
O O5 0.417903 0.465145 0.645513
O O6 0.533128 0.645569 0.619848
O O7 0.581866 0.243490 0.684189
O O8 0.348734 0.755668 0.909737
O O9 0.500000 0.000000 0.500000
O O10 0.667428 0.053944 0.361291
O O11 0.198668 0.978705 0.374442
O O12 0.299527 0.194489 0.297617
O O13 0.188670 0.232135 0.580605
O O14 0.256204 0.548609 0.212623
O O15 0.249266 0.190610 0.115120
O O16 0.500000 0.000000 0.000000
O O17 0.872037 0.998028 0.779811
O O18 0.000000 0.000000 0.500000
#
# Coordination Sequence:
#
# PCOD9013166 Si02
#       8
#     2   2   2   2   2   2   2   2
#     4  11  26  42  67  93 135 181 217 270 328 393
#     4  10  21  41  63  93 133 167 218 273 326 389
#     4  10  22  38  63  95 132 170 213 268 328 390
#     4  10  24  43  69  97 134 170 223 280 326 405
#     4  11  25  46  72 101 134 173 226 282 341 392
#     4  11  27  43  69 100 132 179 223 272 346 395
#     4  10  24  43  62  99 131 168 228 268 323 405
#     4  11  25  43  68  99 135 172 225 276 325 405
#
# _framework density 21.736539
#
# number of rings (size 3 to 8) (size 9 to 14) (size 15 to 20)
#    0.000    1.500    1.250    1.500    7.000    9.000 
#    0.000    0.000    0.000    0.000    0.000    0.000 
#    0.000    0.000    0.000    0.000    0.000    0.000 
#
# Total GULP energy -89366.790941 kJ/mol
# GULP energy per Si atom -5585.424434 kJ/mol
# Density = 2.168707 g / cm^3
# Si number density = 21.736539 Si / 1000 Ang^3
#
#
#
# Elastic Constant Matrix: (Units=GPa)
#
#
# Indices 1 2 3 4 5 6 
#
# 1 40.2577 10.5080 12.0851 -13.7933 -1.2549 5.6607
# 2 10.5080 86.4036 12.9668 -9.2421 -0.4093 28.0283
# 3 12.0851 12.9668 120.1824 -12.0903 9.3184 16.7658
# 4 -13.7933 -9.2421 -12.0903 35.1115 -2.0280 4.7951
# 5 -1.2549 -0.4093 9.3184 -2.0280 16.3413 -0.5335
# 6 5.6607 28.0283 16.7658 4.7951 -0.5335 33.4899
#
#
#
# Elastic Compliance Matrix: (Units=1/GPa)
#
#
# Indices 1 2 3 4 5 6 
#
# 1 0.030594 -0.000170 -0.001277 0.012627 0.004441 -0.006127
# 2 -0.000170 0.017416 0.001087 0.007100 0.000159 -0.016105
# 3 -0.001277 0.001087 0.010026 0.003783 -0.005525 -0.006342
# 4 0.012627 0.007100 0.003783 0.038920 0.003314 -0.015491
# 5 0.004441 0.000159 -0.005525 0.003314 0.065182 0.002446
# 6 -0.006127 -0.016105 -0.006342 -0.015491 0.002446 0.049806
#
#
# Mechanical properties :
#
#
# Convention : Reuss Voigt Hill
#
# Bulk Modulus (GPa) = 17.44762 35.32930 26.38846
# Shear Modulus (GPa) = 21.57321 31.07412 26.32366
#
# Velocity S-wave (km/s) = 3.15379 3.78508 3.48376
# Velocity P-wave (km/s) = 4.61586 5.94905 5.32435
#
# Compressibility (1/GPa) = 0.05731440
#
# Stress axis : x y z
#
# Youngs Moduli (GPa) = 32.68604 57.41969 99.74357
#
# Poissons Ratio (x) = 0.00975 0.12741
# Poissons Ratio (y) = 0.00555 -0.10839
# Poissons Ratio (z) = 0.04175 -0.06240
#
# Static dielectric constant tensor:
#      x y z
#    x 1.967410 -0.034410 -0.153130 
#    y -0.034410 1.819800 0.011740 
#    z -0.153130 0.011740 1.961060 
# 
# From -- ./inp_files/371050.got.cif
#   From: 2010.05.17/outbox.cif.g08.bks.cpg/sg2_186_cif.got.tgz:371050.got - 2010.06.03 11:33:40.
