data_PCOD9013382
_publ_section_title
;
Structure prediction by ZEFSAII (Michael W. Deem and Ramdas Pophale) SiO2 
 PCOD9013382
Probable space group: P -1
;
_chemical_formula_sum "Si O2"
_cell_formula_units_Z 12
_cell_length_a 9.817549
_cell_length_b 14.450696
_cell_length_c 8.024815
_cell_angle_alpha 144.253036
_cell_angle_beta 137.214213
_cell_angle_gamma 48.768603
_cell_volume 445.966585
_symmetry_space_group_name_H-M "P -1"
_symmetry_group_IT_number 2
_symmetry_cell_setting 'triclinic'
loop_
_space_group_symop_operation_xyz
x,y,z
-x,-y,-z
loop_
_atom_site_type_symbol
_atom_site_label
_atom_site_fract_x
_atom_site_fract_y
_atom_site_fract_z
Si Si1 0.363586 0.504164 0.640353
Si Si2 0.755940 0.347395 0.609846
Si Si3 0.868868 0.776725 0.024444
Si Si4 0.503695 0.911323 0.098616
Si Si5 0.739678 0.866329 0.552837
Si Si6 0.128408 0.807931 0.997087
O O1 0.602407 0.441203 0.744626
O O2 0.285522 0.558644 0.463286
O O3 0.301463 0.654772 0.924124
O O4 0.240817 0.359806 0.358549
O O5 0.983996 0.304521 0.815490
O O6 0.669044 0.182293 0.258742
O O7 0.685122 0.904037 0.119775
O O8 0.018578 0.841028 0.122975
O O9 0.612134 0.809613 0.205643
O O10 0.399833 0.076870 0.329566
O O11 0.949384 0.766705 0.653624
O O12 0.799706 0.033265 0.777602
#
# Coordination Sequence:
#
# PCOD9013382 Si02
#       6
#     2   2   2   2   2   2
#     4  10  21  41  64  93 126 167 207 252 314 375
#     4  10  21  41  67  93 126 162 210 258 311 374
#     4  11  24  40  66  99 125 160 206 270 311 360
#     4  10  22  44  64  92 121 167 217 247 311 368
#     4  10  23  44  66  88 125 176 208 250 307 383
#     4  11  23  42  66  93 130 164 208 258 314 367
#
# _framework density 26.907847
#
# number of rings (size 3 to 8) (size 9 to 14) (size 15 to 20)
#    0.000    1.667    1.667    2.000    2.333    4.667 
#   12.000    0.000    0.000    0.000    0.000    0.000 
#    0.000    0.000    0.000    0.000    0.000    0.000 
#
# Total GULP energy -67300.037892 kJ/mol
# GULP energy per Si atom -5608.336491 kJ/mol
# Density = 2.684660 g / cm^3
# Si number density = 26.907847 Si / 1000 Ang^3
#
#
#
# Elastic Constant Matrix: (Units=GPa)
#
#
# Indices 1 2 3 4 5 6 
#
# 1 172.2462 35.4097 34.9844 24.5721 -9.5856 -18.8614
# 2 35.4097 81.1387 12.6408 4.8072 4.0063 -8.6918
# 3 34.9844 12.6408 70.5140 12.6574 10.1840 -6.7009
# 4 24.5721 4.8072 12.6574 24.0745 -7.9759 -4.8213
# 5 -9.5856 4.0063 10.1840 -7.9759 34.3241 1.0076
# 6 -18.8614 -8.6918 -6.7009 -4.8213 1.0076 51.6906
#
#
#
# Elastic Compliance Matrix: (Units=1/GPa)
#
#
# Indices 1 2 3 4 5 6 
#
# 1 0.007919 -0.002668 -0.002679 -0.005138 0.002078 0.001574
# 2 -0.002668 0.013855 -0.000684 -0.000164 -0.002235 0.001296
# 3 -0.002679 -0.000684 0.018634 -0.009606 -0.008446 0.000592
# 4 -0.005138 -0.000164 -0.009606 0.057096 0.014646 0.001892
# 5 0.002078 -0.002235 -0.008446 0.014646 0.035886 -0.000046
# 6 0.001574 0.001296 0.000592 0.001892 -0.000046 0.020392
#
#
# Mechanical properties :
#
#
# Convention : Reuss Voigt Hill
#
# Bulk Modulus (GPa) = 35.28023 54.44099 44.86061
# Shear Modulus (GPa) = 28.52366 38.07544 33.29955
#
# Velocity S-wave (km/s) = 3.25937 3.76577 3.52169
# Velocity P-wave (km/s) = 5.22538 6.25974 5.76580
#
# Compressibility (1/GPa) = 0.02834449
#
# Stress axis : x y z
#
# Youngs Moduli (GPa) = 126.27483 72.17853 53.66622
#
# Poissons Ratio (x) = 0.19259 0.14377
# Poissons Ratio (y) = 0.33693 0.03673
# Poissons Ratio (z) = 0.33828 0.04940
#
# Static dielectric constant tensor:
#      x y z
#    x 2.101330 0.041720 -0.028640 
#    y 0.041720 2.098130 -0.025400 
#    z -0.028640 -0.025400 2.081130 
# 
# From -- ./inp_files/204873.got.cif
#   From: 2010.05.17/outbox.cif.g08.bks.cpg/sg2_103_cif.got.tgz:204873.got - 2010.06.03 11:33:40.
