data_PCOD9013930
_publ_section_title
;
Structure prediction by ZEFSAII (Michael W. Deem and Ramdas Pophale) SiO2 
 PCOD9013930
Probable space group: P -1
;
_chemical_formula_sum "Si O2"
_cell_formula_units_Z 14
_cell_length_a 7.472931
_cell_length_b 7.146833
_cell_length_c 18.185484
_cell_angle_alpha 64.646682
_cell_angle_beta 131.000832
_cell_angle_gamma 114.735805
_cell_volume 648.797507
_symmetry_space_group_name_H-M "P -1"
_symmetry_group_IT_number 2
_symmetry_cell_setting 'triclinic'
loop_
_space_group_symop_operation_xyz
x,y,z
-x,-y,-z
loop_
_atom_site_type_symbol
_atom_site_label
_atom_site_fract_x
_atom_site_fract_y
_atom_site_fract_z
Si Si1 0.756039 0.459834 0.547777
Si Si2 0.627751 0.066718 0.100194
Si Si3 0.622348 0.391633 0.147140
Si Si4 0.768238 0.970277 0.890399
Si Si5 0.128469 0.865154 0.626988
Si Si6 0.002362 0.199215 0.774886
Si Si7 0.720755 0.115295 0.488875
O O1 0.500000 0.500000 0.500000
O O2 0.862020 0.303600 0.657875
O O3 0.743015 0.355312 0.481522
O O4 0.937673 0.681824 0.565691
O O5 0.651182 0.314855 0.084080
O O6 0.441703 0.957204 0.130956
O O7 0.879531 0.994211 0.186617
O O8 0.500000 0.000000 0.000000
O O9 0.344929 0.280933 0.110699
O O10 0.763133 0.245563 0.259166
O O11 0.764123 0.624984 0.163976
O O12 0.834107 0.108889 0.812910
O O13 0.000000 0.000000 0.000000
O O14 0.320735 0.931841 0.601499
O O15 0.969184 0.030225 0.583434
O O16 0.500000 0.000000 0.500000
#
# Coordination Sequence:
#
# PCOD9013930 Si02
#       7
#     2   2   2   2   2   2   2
#     4  11  23  41  62  92 128 167 211 257 308 375
#     4  10  21  41  66  91 124 161 206 258 318 375
#     4   9  23  41  60  93 125 159 211 254 308 384
#     4  10  22  41  65  92 123 159 206 259 314 378
#     4  10  22  42  57  87 126 161 210 264 303 364
#     4  11  22  44  64  90 130 167 204 264 312 366
#     4  11  22  36  63  87 119 168 209 255 313 358
#
# _framework density 21.578379999999999
#
# number of rings (size 3 to 8) (size 9 to 14) (size 15 to 20)
#    0.857    0.857    2.857    1.286    2.000    2.286 
#    7.714    1.429    0.000    0.000    0.000    0.000 
#    0.000    0.000    0.000    0.000    0.000    0.000 
#
# Total GULP energy -78027.684805 kJ/mol
# GULP energy per Si atom -5573.406058 kJ/mol
# Density = 2.152927 g / cm^3
# Si number density = 21.578380 Si / 1000 Ang^3
#
#
#
# Elastic Constant Matrix: (Units=GPa)
#
#
# Indices 1 2 3 4 5 6 
#
# 1 127.9816 9.6887 17.5448 -7.5163 -8.4806 -2.9282
# 2 9.6887 83.0603 -3.7483 14.7021 1.1760 3.8355
# 3 17.5448 -3.7483 50.6294 -1.3391 1.2097 -1.1650
# 4 -7.5163 14.7021 -1.3391 33.1707 1.8433 -0.1287
# 5 -8.4806 1.1760 1.2097 1.8433 32.9440 -4.9609
# 6 -2.9282 3.8355 -1.1650 -0.1287 -4.9609 41.4212
#
#
#
# Elastic Compliance Matrix: (Units=1/GPa)
#
#
# Indices 1 2 3 4 5 6 
#
# 1 0.008693 -0.001668 -0.003106 0.002453 0.002422 0.000979
# 2 -0.001668 0.013483 0.001397 -0.006257 -0.000830 -0.001446
# 3 -0.003106 0.001397 0.020960 -0.000388 -0.001590 0.000049
# 4 0.002453 -0.006257 -0.000388 0.033513 -0.000895 0.000739
# 5 0.002422 -0.000830 -0.001590 -0.000895 0.031718 0.003999
# 6 0.000979 -0.001446 0.000049 0.000739 0.003999 0.024828
#
#
# Mechanical properties :
#
#
# Convention : Reuss Voigt Hill
#
# Bulk Modulus (GPa) = 27.48597 34.29352 30.88974
# Shear Modulus (GPa) = 32.87830 37.38625 35.13228
#
# Velocity S-wave (km/s) = 3.90765 4.16694 4.03938
# Velocity P-wave (km/s) = 5.75544 6.25126 6.00847
#
# Compressibility (1/GPa) = 0.03638220
#
# Stress axis : x y z
#
# Youngs Moduli (GPa) = 115.04005 74.16699 47.70978
#
# Poissons Ratio (x) = 0.12370 0.14820
# Poissons Ratio (y) = 0.19186 -0.06666
# Poissons Ratio (z) = 0.35734 -0.10363
#
# Static dielectric constant tensor:
#      x y z
#    x 1.855370 0.027600 -0.024900 
#    y 0.027600 1.857110 0.027950 
#    z -0.024900 0.027950 1.815530 
# 
# From -- ./inp_files/547926.got.cif
#   From: 2010.05.17/outbox.cif.g08.bks.cpg/sg2_274_cif.got.tgz:547926.got - 2010.06.03 11:33:40.
