data_PCOD9013486
_publ_section_title
;
Structure prediction by ZEFSAII (Michael W. Deem and Ramdas Pophale) SiO2 
 PCOD9013486
Probable space group: P -1
;
_chemical_formula_sum "Si O2"
_cell_formula_units_Z 15
_cell_length_a 8.066998
_cell_length_b 12.568608
_cell_length_c 9.545163
_cell_angle_alpha 34.361188
_cell_angle_beta 78.317429
_cell_angle_gamma 89.298122
_cell_volume 513.477363
_symmetry_space_group_name_H-M "P -1"
_symmetry_group_IT_number 2
_symmetry_cell_setting 'triclinic'
loop_
_space_group_symop_operation_xyz
x,y,z
-x,-y,-z
loop_
_atom_site_type_symbol
_atom_site_label
_atom_site_fract_x
_atom_site_fract_y
_atom_site_fract_z
Si Si1 0.361332 0.778288 0.904305
Si Si2 0.002043 0.340785 0.055980
Si Si3 0.799343 0.641392 0.519985
Si Si4 0.567926 0.768350 0.611301
Si Si5 0.741100 0.308508 0.456432
Si Si6 0.843314 0.939375 0.788568
Si Si7 0.453099 0.266976 0.747912
Si Si8 0.000000 0.000000 0.000000
O O1 0.512132 0.754142 0.797665
O O2 0.404005 0.006538 0.688221
O O3 0.286651 0.591718 0.224290
O O4 0.192635 0.751480 0.862349
O O5 0.118358 0.486606 0.757987
O O6 0.100347 0.173288 0.225975
O O7 0.000000 0.500000 0.000000
O O8 0.734194 0.688327 0.633479
O O9 0.702397 0.777239 0.295312
O O10 0.990979 0.766027 0.302796
O O11 0.402049 0.649579 0.673761
O O12 0.619756 0.213868 0.712415
O O13 0.831007 0.157474 0.533220
O O14 0.643570 0.828062 0.993423
O O15 0.970669 0.941742 0.898214
O O16 0.500000 0.500000 0.500000
#
# Coordination Sequence:
#
# PCOD9013486 Si02
#       8
#     2   2   2   2   2   2   2   1
#     4  11  23  42  65  96 132 183 223 279 348 400
#     4  12  25  44  64 100 140 178 232 281 337 419
#     4  10  22  41  67  90 135 172 218 289 346 397
#     4  10  23  42  64  98 133 169 237 278 329 430
#     4  11  23  43  70  98 133 180 226 285 354 403
#     4  11  24  43  69  96 141 178 225 285 346 407
#     4  10  21  41  64  98 128 167 228 282 331 417
#     4  10  22  46  64 106 134 176 234 288 340 422
#
# _framework density 29.212584
#
# number of rings (size 3 to 8) (size 9 to 14) (size 15 to 20)
#    0.000    1.333    2.667    2.400    1.867    0.533 
#    7.200    4.000    0.000    0.000    0.000    0.000 
#    0.000    0.000    0.000    0.000    0.000    0.000 
#
# Total GULP energy -83731.002423 kJ/mol
# GULP energy per Si atom -5582.066828 kJ/mol
# Density = 2.914609 g / cm^3
# Si number density = 29.212584 Si / 1000 Ang^3
#
#
#
# Elastic Constant Matrix: (Units=GPa)
#
#
# Indices 1 2 3 4 5 6 
#
# 1 80.3882 32.2441 -4.5176 6.7435 6.2764 -15.8963
# 2 32.2441 141.5369 16.2722 -10.0393 7.5702 -20.7917
# 3 -4.5176 16.2722 197.4693 -18.2229 0.3600 -10.8006
# 4 6.7435 -10.0393 -18.2229 39.7274 -0.1946 4.6344
# 5 6.2764 7.5702 0.3600 -0.1946 33.5975 1.8947
# 6 -15.8963 -20.7917 -10.8006 4.6344 1.8947 48.9362
#
#
#
# Elastic Compliance Matrix: (Units=1/GPa)
#
#
# Indices 1 2 3 4 5 6 
#
# 1 0.014966 -0.002984 0.000490 -0.003564 -0.002382 0.004131
# 2 -0.002984 0.008368 -0.000429 0.002144 -0.001443 0.002344
# 3 0.000490 -0.000429 0.005362 0.002156 -0.000094 0.000960
# 4 -0.003564 0.002144 0.002156 0.027589 0.000455 -0.002401
# 5 -0.002382 -0.001443 -0.000094 0.000455 0.030687 -0.002639
# 6 0.004131 0.002344 0.000960 -0.002401 -0.002639 0.023314
#
#
# Mechanical properties :
#
#
# Convention : Reuss Voigt Hill
#
# Bulk Modulus (GPa) = 43.76531 56.37686 50.07108
# Shear Modulus (GPa) = 40.40394 49.47860 44.94127
#
# Velocity S-wave (km/s) = 3.72304 4.11998 3.92653
# Velocity P-wave (km/s) = 5.78753 6.47866 6.14282
#
# Compressibility (1/GPa) = 0.02284915
#
# Stress axis : x y z
#
# Youngs Moduli (GPa) = 66.81793 119.50154 186.48927
#
# Poissons Ratio (x) = 0.35662 -0.09133
# Poissons Ratio (y) = 0.19940 0.08003
# Poissons Ratio (z) = -0.03272 0.05128
#
# Static dielectric constant tensor:
#      x y z
#    x 1.947610 0.178010 0.237450 
#    y 0.178010 2.239630 0.013980 
#    z 0.237450 0.013980 2.145490 
# 
# From -- ./inp_files/398097.got.cif
#   From: 2010.05.17/outbox.cif.g08.bks.cpg/sg2_200_cif.got.tgz:398097.got - 2010.06.03 11:33:40.
