data_PCOD9013132
_publ_section_title
;
Structure prediction by ZEFSAII (Michael W. Deem and Ramdas Pophale) SiO2 
 PCOD9013132
Probable space group: P -1
;
_chemical_formula_sum "Si O2"
_cell_formula_units_Z 13
_cell_length_a 9.867184
_cell_length_b 26.397787
_cell_length_c 7.051022
_cell_angle_alpha 34.729613
_cell_angle_beta 45.195350
_cell_angle_gamma 26.258573
_cell_volume 459.085351
_symmetry_space_group_name_H-M "P -1"
_symmetry_group_IT_number 2
_symmetry_cell_setting 'triclinic'
loop_
_space_group_symop_operation_xyz
x,y,z
-x,-y,-z
loop_
_atom_site_type_symbol
_atom_site_label
_atom_site_fract_x
_atom_site_fract_y
_atom_site_fract_z
Si Si1 0.772875 0.484100 0.636772
Si Si2 0.096499 0.534649 0.025262
Si Si3 0.270203 0.192954 0.652870
Si Si4 0.500000 0.500000 0.500000
Si Si5 0.362250 0.913947 0.026353
Si Si6 0.196412 0.962589 0.626775
Si Si7 0.130920 0.793471 0.216299
O O1 0.028920 0.460770 0.386963
O O2 0.701980 0.439440 0.683680
O O3 0.442611 0.655911 0.438402
O O4 0.149668 0.570559 0.057218
O O5 0.364364 0.454138 0.859442
O O6 0.808559 0.683120 0.742639
O O7 0.350791 0.171624 0.858706
O O8 0.601387 0.046758 0.676447
O O9 0.971968 0.246607 0.704129
O O10 0.401015 0.883793 0.860502
O O11 0.149010 0.911020 0.329115
O O12 0.145642 0.081009 0.754291
O O13 0.174964 0.872682 0.828244
#
# Coordination Sequence:
#
# PCOD9013132 Si02
#       7
#     2   2   2   1   2   2   2
#     4  11  24  47  64  96 131 172 211 267 325 377
#     4  11  25  44  69  92 133 169 214 270 322 378
#     4  12  21  39  67  91 125 170 205 263 319 373
#     4  12  24  44  68  98 120 170 226 262 316 384
#     4   9  21  42  60  95 126 160 211 260 308 384
#     4   9  21  41  61  91 125 166 203 258 315 374
#     4  10  21  41  63  91 130 163 211 257 318 374
#
# _framework density 28.317176
#
# number of rings (size 3 to 8) (size 9 to 14) (size 15 to 20)
#    0.923    0.615    3.077    1.846    0.000    1.846 
#    2.769    1.538    0.000    0.000    0.000    0.000 
#    0.000    0.000    0.000    0.000    0.000    0.000 
#
# Total GULP energy -72487.622427 kJ/mol
# GULP energy per Si atom -5575.970956 kJ/mol
# Density = 2.825272 g / cm^3
# Si number density = 28.317176 Si / 1000 Ang^3
#
#
#
# Elastic Constant Matrix: (Units=GPa)
#
#
# Indices 1 2 3 4 5 6 
#
# 1 170.0993 25.0945 12.5251 20.8267 16.5035 -6.9433
# 2 25.0945 102.3936 25.1487 15.7973 4.9666 -27.7001
# 3 12.5251 25.1487 69.6984 22.1450 6.7780 -3.6445
# 4 20.8267 15.7973 22.1450 57.0901 -8.5741 -2.3138
# 5 16.5035 4.9666 6.7780 -8.5741 49.0721 -0.5271
# 6 -6.9433 -27.7001 -3.6445 -2.3138 -0.5271 54.5084
#
#
#
# Elastic Compliance Matrix: (Units=1/GPa)
#
#
# Indices 1 2 3 4 5 6 
#
# 1 0.006599 -0.001124 0.000306 -0.002600 -0.002601 0.000155
# 2 -0.001124 0.012832 -0.003532 -0.001623 -0.000651 0.006067
# 3 0.000306 -0.003532 0.017964 -0.006648 -0.003398 -0.000870
# 4 -0.002600 -0.001623 -0.006648 0.022348 0.005855 -0.000595
# 5 -0.002601 -0.000651 -0.003398 0.005855 0.022807 -0.000420
# 6 0.000155 0.006067 -0.000870 -0.000595 -0.000420 0.021361
#
#
# Mechanical properties :
#
#
# Convention : Reuss Voigt Hill
#
# Bulk Modulus (GPa) = 34.84663 51.96978 43.40820
# Shear Modulus (GPa) = 40.92508 50.76230 45.84369
#
# Velocity S-wave (km/s) = 3.80575 4.23854 4.02797
# Velocity P-wave (km/s) = 5.62532 6.50740 6.08237
#
# Compressibility (1/GPa) = 0.02869718
#
# Stress axis : x y z
#
# Youngs Moduli (GPa) = 151.53773 77.92878 55.66637
#
# Poissons Ratio (x) = 0.08755 -0.01706
# Poissons Ratio (y) = 0.17025 0.19662
# Poissons Ratio (z) = -0.04644 0.27525
#
# Static dielectric constant tensor:
#      x y z
#    x 2.024050 -0.244180 0.053160 
#    y -0.244180 1.806930 0.087310 
#    z 0.053160 0.087310 2.121200 
# 
# From -- ./inp_files/226888.got.cif
#   From: 2010.05.17/outbox.cif.g08.bks.cpg/sg2_114_cif.got.tgz:226888.got - 2010.06.03 11:33:40.
