data_PCOD9013539
_publ_section_title
;
Structure prediction by ZEFSAII (Michael W. Deem and Ramdas Pophale) SiO2 
 PCOD9013539
Probable space group: P -1
;
_chemical_formula_sum "Si O2"
_cell_formula_units_Z 16
_cell_length_a 16.825349
_cell_length_b 9.137131
_cell_length_c 11.724826
_cell_angle_alpha 83.428227
_cell_angle_beta 128.925511
_cell_angle_gamma 53.928894
_cell_volume 722.760663
_symmetry_space_group_name_H-M "P -1"
_symmetry_group_IT_number 2
_symmetry_cell_setting 'triclinic'
loop_
_space_group_symop_operation_xyz
x,y,z
-x,-y,-z
loop_
_atom_site_type_symbol
_atom_site_label
_atom_site_fract_x
_atom_site_fract_y
_atom_site_fract_z
Si Si1 0.566674 0.763459 0.631053
Si Si2 0.725510 0.276609 0.203769
Si Si3 0.573891 0.358449 0.455929
Si Si4 0.171893 0.131561 0.568078
Si Si5 0.413391 0.269663 0.086033
Si Si6 0.233879 0.206741 0.865750
Si Si7 0.198214 0.944513 0.944913
Si Si8 0.142798 0.746463 0.240339
O O1 0.392636 0.855934 0.478813
O O2 0.711137 0.524035 0.684622
O O3 0.500000 0.000000 0.500000
O O4 0.655508 0.659450 0.849670
O O5 0.698972 0.480583 0.126072
O O6 0.830989 0.079674 0.205653
O O7 0.832652 0.042283 0.416548
O O8 0.500000 0.500000 0.000000
O O9 0.500000 0.500000 0.500000
O O10 0.744678 0.262333 0.589311
O O11 0.382681 0.621413 0.182939
O O12 0.214719 0.153782 0.729377
O O13 0.966843 0.456750 0.318342
O O14 0.363760 0.944633 0.688683
O O15 0.402347 0.120215 0.036951
O O16 0.262336 0.035079 0.991238
O O17 0.998504 0.172856 0.813712
O O18 0.000000 0.000000 0.000000
#
# Coordination Sequence:
#
# PCOD9013539 Si02
#       8
#     2   2   2   2   2   2   2   2
#     4  11  25  41  61  96 133 161 208 266 314 363
#     4   9  19  40  64  85 125 158 201 263 310 372
#     4  10  21  41  65  85 123 171 210 252 311 373
#     4   9  21  42  60  87 121 159 206 251 309 377
#     4  11  21  40  61  89 124 161 197 257 321 358
#     4  10  23  37  64  91 121 156 206 255 307 380
#     4  11  21  41  62  92 120 166 214 249 305 383
#     4  11  22  42  66  87 122 172 218 249 298 385
#
# _framework density 22.137343000000001
#
# number of rings (size 3 to 8) (size 9 to 14) (size 15 to 20)
#    0.000    1.750    3.750    0.375    5.250    0.500 
#    4.500    7.500    0.000    0.000    0.000    0.000 
#    0.000    0.000    0.000    0.000    0.000    0.000 
#
# Total GULP energy -89141.967620 kJ/mol
# GULP energy per Si atom -5571.372976 kJ/mol
# Density = 2.208696 g / cm^3
# Si number density = 22.137343 Si / 1000 Ang^3
#
#
#
# Elastic Constant Matrix: (Units=GPa)
#
#
# Indices 1 2 3 4 5 6 
#
# 1 143.5548 54.5212 27.8771 -11.5772 -7.1944 19.3846
# 2 54.5212 81.9477 13.8120 -15.8060 -10.8417 11.9492
# 3 27.8771 13.8120 43.0413 -15.7514 1.9383 7.3993
# 4 -11.5772 -15.8060 -15.7514 36.3458 7.0996 -3.2088
# 5 -7.1944 -10.8417 1.9383 7.0996 24.6611 -14.1066
# 6 19.3846 11.9492 7.3993 -3.2088 -14.1066 49.6960
#
#
#
# Elastic Compliance Matrix: (Units=1/GPa)
#
#
# Indices 1 2 3 4 5 6 
#
# 1 0.010394 -0.006094 -0.005100 -0.001751 0.000175 -0.001893
# 2 -0.006094 0.017861 -0.000164 0.004846 0.004523 -0.000296
# 3 -0.005100 -0.000164 0.033296 0.014487 -0.011327 -0.005209
# 4 -0.001751 0.004846 0.014487 0.037441 -0.012445 -0.003754
# 5 0.000175 0.004523 -0.011327 -0.012445 0.055999 0.015623
# 6 -0.001893 -0.000296 -0.005209 -0.003754 0.015623 0.025900
#
#
# Mechanical properties :
#
#
# Convention : Reuss Voigt Hill
#
# Bulk Modulus (GPa) = 25.74939 51.21827 38.48383
# Shear Modulus (GPa) = 23.08914 33.62949 28.35932
#
# Velocity S-wave (km/s) = 3.23305 3.90183 3.58308
# Velocity P-wave (km/s) = 5.05902 6.59438 5.87706
#
# Compressibility (1/GPa) = 0.03883587
#
# Stress axis : x y z
#
# Youngs Moduli (GPa) = 96.20888 55.98664 30.03357
#
# Poissons Ratio (x) = 0.34120 0.15316
# Poissons Ratio (y) = 0.58633 0.00492
# Poissons Ratio (z) = 0.49062 0.00918
#
# Static dielectric constant tensor:
#      x y z
#    x 1.669710 0.148980 -0.181540 
#    y 0.148980 1.737250 0.137060 
#    z -0.181540 0.137060 1.597450 
# 
# From -- ./inp_files/447186.got.cif
#   From: 2010.05.17/outbox.cif.g08.bks.cpg/sg2_224_cif.got.tgz:447186.got - 2010.06.03 11:33:40.
