data_PCOD9013665
_publ_section_title
;
Structure prediction by ZEFSAII (Michael W. Deem and Ramdas Pophale) SiO2 
 PCOD9013665
Probable space group: P -1
;
_chemical_formula_sum "Si O2"
_cell_formula_units_Z 16
_cell_length_a 9.249764
_cell_length_b 8.327052
_cell_length_c 17.189245
_cell_angle_alpha 110.719088
_cell_angle_beta 44.150395
_cell_angle_gamma 86.291330
_cell_volume 752.437386
_symmetry_space_group_name_H-M "P -1"
_symmetry_group_IT_number 2
_symmetry_cell_setting 'triclinic'
loop_
_space_group_symop_operation_xyz
x,y,z
-x,-y,-z
loop_
_atom_site_type_symbol
_atom_site_label
_atom_site_fract_x
_atom_site_fract_y
_atom_site_fract_z
Si Si1 0.707083 0.914155 0.966978
Si Si2 0.901715 0.303505 0.472874
Si Si3 0.527361 0.619549 0.239987
Si Si4 0.522130 0.310037 0.914313
Si Si5 0.740254 0.184041 0.120841
Si Si6 0.573385 0.951923 0.373689
Si Si7 0.988912 0.028967 0.257211
Si Si8 0.689577 0.742026 0.597066
O O1 0.943410 0.864620 0.819134
O O2 0.683218 0.744505 0.992018
O O3 0.500000 0.000000 0.000000
O O4 0.643812 0.102619 0.076178
O O5 0.718835 0.351542 0.622506
O O6 0.852979 0.507888 0.487848
O O7 0.856850 0.180835 0.403785
O O8 0.167788 0.196326 0.386420
O O9 0.489470 0.666802 0.170854
O O10 0.719864 0.390530 0.140573
O O11 0.589923 0.762398 0.291109
O O12 0.771415 0.136306 0.822168
O O13 0.500000 0.500000 0.000000
O O14 0.563460 0.219360 0.266185
O O15 0.000000 0.000000 0.000000
O O16 0.500000 0.000000 0.500000
O O17 0.367950 0.135249 0.437423
O O18 0.827217 0.945217 0.270155
#
# Coordination Sequence:
#
# PCOD9013665 Si02
#       8
#     2   2   2   2   2   2   2   2
#     4  10  21  41  65  92 131 176 224 272 327 409
#     4  10  22  43  68  98 128 186 232 284 341 415
#     4  11  24  44  69 100 139 178 235 289 348 408
#     4  11  25  43  71 104 137 178 232 289 341 403
#     4  11  23  44  68  94 131 187 230 278 344 414
#     4  12  25  43  64 103 143 177 223 288 360 405
#     4  11  23  42  65  98 140 183 230 274 347 415
#     4  10  23  41  67  95 133 177 235 284 346 417
#
# _framework density 21.264227999999999
#
# number of rings (size 3 to 8) (size 9 to 14) (size 15 to 20)
#    0.000    1.250    1.250    5.250    1.750    4.500 
#    2.250    3.750    0.000    0.000    0.000    0.000 
#    0.000    0.000    0.000    0.000    0.000    0.000 
#
# Total GULP energy -89346.118237 kJ/mol
# GULP energy per Si atom -5584.132390 kJ/mol
# Density = 2.121583 g / cm^3
# Si number density = 21.264228 Si / 1000 Ang^3
#
#
#
# Elastic Constant Matrix: (Units=GPa)
#
#
# Indices 1 2 3 4 5 6 
#
# 1 123.0505 77.4357 29.2935 12.8627 13.7851 14.4927
# 2 77.4357 153.7206 60.2932 -3.2191 20.3617 1.7237
# 3 29.2935 60.2932 76.1564 -4.1188 12.9860 -1.5309
# 4 12.8627 -3.2191 -4.1188 29.0336 3.9621 -0.7769
# 5 13.7851 20.3617 12.9860 3.9621 47.5731 2.6514
# 6 14.4927 1.7237 -1.5309 -0.7769 2.6514 37.5525
#
#
#
# Elastic Compliance Matrix: (Units=1/GPa)
#
#
# Indices 1 2 3 4 5 6 
#
# 1 0.013976 -0.006998 -0.000313 -0.007141 -0.000083 -0.005227
# 2 -0.006998 0.013158 -0.007117 0.003890 -0.002099 0.002035
# 3 -0.000313 -0.007117 0.019470 0.002488 -0.002467 0.001467
# 4 -0.007141 0.003890 0.002488 0.039000 -0.003732 0.003749
# 5 -0.000083 -0.002099 -0.002467 -0.003732 0.023020 -0.001675
# 6 -0.005227 0.002035 0.001467 0.003749 -0.001675 0.028809
#
#
# Mechanical properties :
#
#
# Convention : Reuss Voigt Hill
#
# Bulk Modulus (GPa) = 56.33685 76.33028 66.33356
# Shear Modulus (GPa) = 29.03508 35.22550 32.13029
#
# Velocity S-wave (km/s) = 3.69920 4.07450 3.89138
# Velocity P-wave (km/s) = 6.69303 7.62296 7.17308
#
# Compressibility (1/GPa) = 0.01775037
#
# Stress axis : x y z
#
# Youngs Moduli (GPa) = 71.54995 75.99782 51.36050
#
# Poissons Ratio (x) = 0.53180 0.01608
# Poissons Ratio (y) = 0.50067 0.36551
# Poissons Ratio (z) = 0.02240 0.54085
#
# Static dielectric constant tensor:
#      x y z
#    x 1.768490 0.035680 -0.012500 
#    y 0.035680 1.800160 -0.027720 
#    z -0.012500 -0.027720 1.796780 
# 
# From -- ./inp_files/448029.got.cif
#   From: 2010.05.17/outbox.cif.g08.bks.cpg/sg2_225_cif.got.tgz:448029.got - 2010.06.03 11:33:40.
