data_PCOD9013671
_publ_section_title
;
Structure prediction by ZEFSAII (Michael W. Deem and Ramdas Pophale) SiO2 
 PCOD9013671
Probable space group: P -1
;
_chemical_formula_sum "Si O2"
_cell_formula_units_Z 16
_cell_length_a 18.427007
_cell_length_b 5.561774
_cell_length_c 8.159364
_cell_angle_alpha 62.670033
_cell_angle_beta 73.999365
_cell_angle_gamma 92.704413
_cell_volume 699.169966
_symmetry_space_group_name_H-M "P -1"
_symmetry_group_IT_number 2
_symmetry_cell_setting 'triclinic'
loop_
_space_group_symop_operation_xyz
x,y,z
-x,-y,-z
loop_
_atom_site_type_symbol
_atom_site_label
_atom_site_fract_x
_atom_site_fract_y
_atom_site_fract_z
Si Si1 0.319248 0.331050 0.820220
Si Si2 0.832469 0.690403 0.862045
Si Si3 0.729891 0.270961 0.901157
Si Si4 0.842326 0.982083 0.419842
Si Si5 0.758309 0.423189 0.468726
Si Si6 0.567121 0.333690 0.983732
Si Si7 0.006130 0.179444 0.106065
Si Si8 0.517079 0.712728 0.272594
O O1 0.313663 0.527519 0.609256
O O2 0.405396 0.373705 0.824699
O O3 0.243515 0.335344 0.973160
O O4 0.301410 0.006298 0.893328
O O5 0.814732 0.386599 0.885594
O O6 0.910393 0.803172 0.871830
O O7 0.830740 0.868747 0.645905
O O8 0.738231 0.257426 0.703481
O O9 0.659307 0.435146 0.910465
O O10 0.807604 0.260350 0.369722
O O11 0.932337 0.044988 0.301967
O O12 0.801597 0.732008 0.403788
O O13 0.552370 0.290357 0.809710
O O14 0.500000 0.500000 0.000000
O O15 0.542683 0.041638 0.186433
O O16 0.000000 0.500000 0.000000
O O17 0.000000 0.000000 0.000000
O O18 0.500000 0.500000 0.500000
#
# Coordination Sequence:
#
# PCOD9013671 Si02
#       8
#     2   2   2   2   2   2   2   2
#     4  11  22  40  66  94 136 178 227 285 342 410
#     4  11  24  42  69  94 136 176 231 280 343 409
#     4  10  23  42  63  99 130 180 226 286 344 408
#     4  11  24  46  66 102 134 184 227 284 340 408
#     4  11  24  43  68  99 141 175 236 280 344 401
#     4  10  21  41  65  92 136 174 230 282 347 410
#     4  12  27  44  69 102 140 180 229 281 342 411
#     4  10  22  40  63  96 134 176 229 280 347 412
#
# _framework density 22.884278999999999
#
# number of rings (size 3 to 8) (size 9 to 14) (size 15 to 20)
#    0.000    1.250    1.250    4.125    5.250    0.500 
#    4.500    3.125    0.000    0.000    0.000    0.000 
#    0.000    0.000    0.000    0.000    0.000    0.000 
#
# Total GULP energy -89102.555201 kJ/mol
# GULP energy per Si atom -5568.909700 kJ/mol
# Density = 2.283219 g / cm^3
# Si number density = 22.884279 Si / 1000 Ang^3
#
#
#
# Elastic Constant Matrix: (Units=GPa)
#
#
# Indices 1 2 3 4 5 6 
#
# 1 126.7533 49.5186 -1.0189 1.0919 -3.8892 8.6396
# 2 49.5186 102.4424 28.3086 6.6623 2.6999 -11.3396
# 3 -1.0189 28.3086 85.5659 -3.6822 -11.1856 -11.9380
# 4 1.0919 6.6623 -3.6822 28.3772 -13.1609 -6.4397
# 5 -3.8892 2.6999 -11.1856 -13.1609 28.2198 8.9982
# 6 8.6396 -11.3396 -11.9380 -6.4397 8.9982 22.7828
#
#
#
# Elastic Compliance Matrix: (Units=1/GPa)
#
#
# Indices 1 2 3 4 5 6 
#
# 1 0.011842 -0.007903 0.002648 0.003328 0.007933 -0.009229
# 2 -0.007903 0.017371 -0.006259 -0.007834 -0.012409 0.011050
# 3 0.002648 -0.006259 0.015920 0.008943 0.010631 0.002551
# 4 0.003328 -0.007834 0.008943 0.051759 0.027891 0.003139
# 5 0.007933 -0.012409 0.010631 0.027891 0.061296 -0.019940
# 6 -0.009229 0.011050 0.002551 0.003139 -0.019940 0.062992
#
#
# Mechanical properties :
#
#
# Convention : Reuss Voigt Hill
#
# Bulk Modulus (GPa) = 45.23743 52.04201 48.63972
# Shear Modulus (GPa) = 19.87488 31.73952 25.80720
#
# Velocity S-wave (km/s) = 2.95022 3.72823 3.36181
# Velocity P-wave (km/s) = 5.60499 6.42835 6.03074
#
# Compressibility (1/GPa) = 0.02210559
#
# Stress axis : x y z
#
# Youngs Moduli (GPa) = 84.44603 57.56746 62.81570
#
# Poissons Ratio (x) = 0.45496 -0.16636
# Poissons Ratio (y) = 0.66738 0.39314
# Poissons Ratio (z) = -0.22364 0.36030
#
# Static dielectric constant tensor:
#      x y z
#    x 1.267770 -1.385370 0.303220 
#    y -1.385370 -0.965240 0.786260 
#    z 0.303220 0.786260 1.692240 
# 
# From -- ./inp_files/323290.got.cif
#   From: 2010.05.17/outbox.cif.g08.bks.cpg/sg2_162_cif.got.tgz:323290.got - 2010.06.03 11:33:40.
