data_PCOD9013975
_publ_section_title
;
Structure prediction by ZEFSAII (Michael W. Deem and Ramdas Pophale) SiO2 
 PCOD9013975
Probable space group: P -1
;
_chemical_formula_sum "Si O2"
_cell_formula_units_Z 16
_cell_length_a 8.443274
_cell_length_b 13.712353
_cell_length_c 12.023973
_cell_angle_alpha 135.914452
_cell_angle_beta 54.777645
_cell_angle_gamma 123.310093
_cell_volume 768.604832
_symmetry_space_group_name_H-M "P -1"
_symmetry_group_IT_number 2
_symmetry_cell_setting 'triclinic'
loop_
_space_group_symop_operation_xyz
x,y,z
-x,-y,-z
loop_
_atom_site_type_symbol
_atom_site_label
_atom_site_fract_x
_atom_site_fract_y
_atom_site_fract_z
Si Si1 0.972146 0.645858 0.424801
Si Si2 0.151842 0.074250 0.332525
Si Si3 0.712459 0.324199 0.294439
Si Si4 0.779022 0.863928 0.384274
Si Si5 0.409011 0.847533 0.011248
Si Si6 0.652132 0.238711 0.487265
Si Si7 0.930347 0.337087 0.856162
Si Si8 0.199695 0.949202 0.883508
O O1 0.153934 0.665897 0.454130
O O2 0.066827 0.670635 0.283979
O O3 0.848829 0.769947 0.589458
O O4 0.830829 0.486169 0.357993
O O5 0.216833 0.087155 0.447320
O O6 0.285514 0.972638 0.144196
O O7 0.918106 0.991598 0.362844
O O8 0.606810 0.312245 0.448562
O O9 0.845471 0.206620 0.163508
O O10 0.587351 0.251938 0.179637
O O11 0.550042 0.804073 0.396378
O O12 0.902397 0.741838 0.233026
O O13 0.277819 0.744514 0.072248
O O14 0.623056 0.930816 0.036689
O O15 0.713891 0.094374 0.303207
O O16 0.000000 0.500000 0.000000
O O17 0.000000 0.000000 0.000000
#
# Coordination Sequence:
#
# PCOD9013975 Si02
#       8
#     2   2   2   2   2   2   2   2
#     4  11  22  39  62  94 129 163 201 259 318 368
#     4   9  19  35  68  89 120 159 212 259 303 364
#     4  10  23  40  64  89 129 165 210 253 305 369
#     4   9  18  39  61  92 120 162 207 259 302 369
#     4  11  20  43  68  92 123 161 218 259 302 369
#     4  10  23  40  59  88 133 161 209 249 313 373
#     4  10  21  41  66  93 123 158 212 263 309 372
#     4  10  24  42  63  92 127 170 208 256 309 371
#
# _framework density 20.816938
#
# number of rings (size 3 to 8) (size 9 to 14) (size 15 to 20)
#    0.750    1.250    2.500    1.500    1.750    0.500 
#    4.500    6.250    0.000    0.000    0.000    0.000 
#    0.000    0.000    0.000    0.000    0.000    0.000 
#
# Total GULP energy -89269.478527 kJ/mol
# GULP energy per Si atom -5579.342408 kJ/mol
# Density = 2.076956 g / cm^3
# Si number density = 20.816938 Si / 1000 Ang^3
#
#
#
# Elastic Constant Matrix: (Units=GPa)
#
#
# Indices 1 2 3 4 5 6 
#
# 1 75.4337 66.8450 48.2399 2.4571 3.0045 25.6057
# 2 66.8450 153.6567 56.6066 22.4574 -9.1092 23.9901
# 3 48.2399 56.6066 79.0759 17.1442 5.5920 16.2603
# 4 2.4571 22.4574 17.1442 36.4660 6.1084 2.1992
# 5 3.0045 -9.1092 5.5920 6.1084 26.1764 1.3466
# 6 25.6057 23.9901 16.2603 2.1992 1.3466 31.5777
#
#
#
# Elastic Compliance Matrix: (Units=1/GPa)
#
#
# Indices 1 2 3 4 5 6 
#
# 1 0.036578 -0.010803 -0.013765 0.012772 -0.007229 -0.014946
# 2 -0.010803 0.013670 -0.001931 -0.008154 0.008334 -0.000419
# 3 -0.013765 -0.001931 0.024374 -0.009016 -0.002236 0.000801
# 4 0.012772 -0.008154 -0.009016 0.037784 -0.011108 -0.001677
# 5 -0.007229 0.008334 -0.002236 -0.011108 0.045026 -0.000465
# 6 -0.014946 -0.000419 0.000801 -0.001677 -0.000465 0.043829
#
#
# Mechanical properties :
#
#
# Convention : Reuss Voigt Hill
#
# Bulk Modulus (GPa) = 46.24630 72.39435 59.32032
# Shear Modulus (GPa) = 19.12278 27.94234 23.53256
#
# Velocity S-wave (km/s) = 3.03416 3.66770 3.36587
# Velocity P-wave (km/s) = 5.87697 7.26555 6.60783
#
# Compressibility (1/GPa) = 0.02162335
#
# Stress axis : x y z
#
# Youngs Moduli (GPa) = 27.33889 73.15247 41.02746
#
# Poissons Ratio (x) = 0.79027 0.56476
# Poissons Ratio (y) = 0.29534 0.07922
# Poissons Ratio (z) = 0.37633 0.14125
#
# Static dielectric constant tensor:
#      x y z
#    x 1.754180 -0.032000 0.033160 
#    y -0.032000 1.779070 -0.038180 
#    z 0.033160 -0.038180 1.779450 
# 
# From -- ./inp_files/503165.got.cif
#   From: 2010.05.17/outbox.cif.g08.bks.cpg/sg2_252_cif.got.tgz:503165.got - 2010.06.03 11:33:40.
