data_PCOD9013999
_publ_section_title
;
Structure prediction by ZEFSAII (Michael W. Deem and Ramdas Pophale) SiO2 
 PCOD9013999
Probable space group: P -1
;
_chemical_formula_sum "Si O2"
_cell_formula_units_Z 14
_cell_length_a 14.816635
_cell_length_b 8.703828
_cell_length_c 7.836177
_cell_angle_alpha 86.369864
_cell_angle_beta 108.418517
_cell_angle_gamma 141.697690
_cell_volume 564.222925
_symmetry_space_group_name_H-M "P -1"
_symmetry_group_IT_number 2
_symmetry_cell_setting 'triclinic'
loop_
_space_group_symop_operation_xyz
x,y,z
-x,-y,-z
loop_
_atom_site_type_symbol
_atom_site_label
_atom_site_fract_x
_atom_site_fract_y
_atom_site_fract_z
Si Si1 0.567601 0.960697 0.288822
Si Si2 0.226101 0.055093 0.509400
Si Si3 0.013709 0.262609 0.327610
Si Si4 0.162789 0.160513 0.987892
Si Si5 0.329110 0.485014 0.392833
Si Si6 0.985082 0.408259 0.811340
Si Si7 0.288049 0.607863 0.863260
O O1 0.473684 0.792174 0.418591
O O2 0.687677 0.973210 0.341547
O O3 0.654925 0.238896 0.289550
O O4 0.436624 0.792686 0.070570
O O5 0.067374 0.890488 0.533302
O O6 0.155996 0.896213 0.300059
O O7 0.339476 0.351427 0.531996
O O8 0.169447 0.369801 0.358237
O O9 0.047331 0.487127 0.334728
O O10 0.880170 0.053323 0.115593
O O11 0.208591 0.336566 0.848753
O O12 0.295995 0.360050 0.197839
O O13 0.000000 0.000000 0.000000
O O14 0.153533 0.546307 0.862885
O O15 0.000000 0.500000 0.000000
#
# Coordination Sequence:
#
# PCOD9013999 Si02
#       7
#     2   2   2   2   2   2   2
#     4  10  22  42  67  94 135 176 211 265 328 390
#     4  12  24  42  68  99 131 167 221 279 322 377
#     4  11  22  39  65 100 129 165 225 272 319 378
#     4   9  18  38  65  94 124 172 217 259 314 384
#     4  10  21  41  66  93 136 174 213 262 328 392
#     4  12  23  41  70  96 126 169 223 271 324 390
#     4  10  21  41  69  92 134 175 214 263 327 386
#
# _framework density 24.812888000000001
#
# number of rings (size 3 to 8) (size 9 to 14) (size 15 to 20)
#    0.000    1.429    1.429    6.429    0.000    0.000 
#    0.000    5.714   12.571    0.000    0.000    0.000 
#    0.000    0.000    0.000    0.000    0.000    0.000 
#
# Total GULP energy -78237.511221 kJ/mol
# GULP energy per Si atom -5588.393659 kJ/mol
# Density = 2.475641 g / cm^3
# Si number density = 24.812888 Si / 1000 Ang^3
#
#
#
# Elastic Constant Matrix: (Units=GPa)
#
#
# Indices 1 2 3 4 5 6 
#
# 1 83.5717 36.8640 33.4463 -0.0110 5.7773 1.2145
# 2 36.8640 170.6548 14.8404 -49.5382 0.1686 -14.1446
# 3 33.4463 14.8404 77.0900 3.9140 9.1606 -5.5077
# 4 -0.0110 -49.5382 3.9140 46.4650 -5.6899 6.1379
# 5 5.7773 0.1686 9.1606 -5.6899 40.9806 -2.1191
# 6 1.2145 -14.1446 -5.5077 6.1379 -2.1191 37.5675
#
#
#
# Elastic Compliance Matrix: (Units=1/GPa)
#
#
# Indices 1 2 3 4 5 6 
#
# 1 0.016503 -0.004424 -0.006086 -0.004068 -0.001643 -0.002519
# 2 -0.004424 0.010252 -0.000736 0.010988 0.002387 0.002234
# 3 -0.006086 -0.000736 0.016456 -0.002898 -0.003084 0.002632
# 4 -0.004068 0.010988 -0.002898 0.034390 0.005876 -0.001443
# 5 -0.001643 0.002387 -0.003084 0.005876 0.026181 0.001017
# 6 -0.002519 0.002234 0.002632 -0.001443 0.001017 0.028220
#
#
# Mechanical properties :
#
#
# Convention : Reuss Voigt Hill
#
# Bulk Modulus (GPa) = 48.26801 55.73529 52.00165
# Shear Modulus (GPa) = 30.97888 41.41367 36.19628
#
# Velocity S-wave (km/s) = 3.53724 4.08982 3.82353
# Velocity P-wave (km/s) = 6.01480 6.69426 6.36361
#
# Compressibility (1/GPa) = 0.02071766
#
# Stress axis : x y z
#
# Youngs Moduli (GPa) = 60.59674 97.54341 60.76867
#
# Poissons Ratio (x) = 0.43149 0.36987
# Poissons Ratio (y) = 0.26805 0.04474
# Poissons Ratio (z) = 0.36882 0.07182
#
# Static dielectric constant tensor:
#      x y z
#    x 1.918860 -0.018530 0.004950 
#    y -0.018530 2.054170 -0.034660 
#    z 0.004950 -0.034660 2.033520 
# 
# From -- ./inp_files/295286.got.cif
#   From: 2010.05.17/outbox.cif.g08.bks.cpg/sg2_148_cif.got.tgz:295286.got - 2010.06.03 11:33:40.
