data_PCOD9013403
_publ_section_title
;
Structure prediction by ZEFSAII (Michael W. Deem and Ramdas Pophale) SiO2 
 PCOD9013403
Probable space group: P -1
;
_chemical_formula_sum "Si O2"
_cell_formula_units_Z 16
_cell_length_a 16.388477
_cell_length_b 15.215631
_cell_length_c 7.700514
_cell_angle_alpha 133.225764
_cell_angle_beta 143.143188
_cell_angle_gamma 30.255735
_cell_volume 580.208358
_symmetry_space_group_name_H-M "P -1"
_symmetry_group_IT_number 2
_symmetry_cell_setting 'triclinic'
loop_
_space_group_symop_operation_xyz
x,y,z
-x,-y,-z
loop_
_atom_site_type_symbol
_atom_site_label
_atom_site_fract_x
_atom_site_fract_y
_atom_site_fract_z
Si Si1 0.681294 0.193577 0.614474
Si Si2 0.150370 0.530466 0.591341
Si Si3 0.705277 0.804291 0.273062
Si Si4 0.526000 0.820442 0.479170
Si Si5 0.061422 0.778919 0.244876
Si Si6 0.180784 0.885606 0.893599
Si Si7 0.385435 0.414660 0.146483
Si Si8 0.137592 0.162074 0.712128
O O1 0.501134 0.239653 0.470124
O O2 0.584849 0.323680 0.463193
O O3 0.812447 0.999714 0.502491
O O4 0.787615 0.181386 0.947319
O O5 0.257509 0.340984 0.447294
O O6 0.942776 0.651006 0.505974
O O7 0.073447 0.654194 0.463244
O O8 0.311469 0.494237 0.935047
O O9 0.715216 0.840935 0.137014
O O10 0.580345 0.983376 0.407263
O O11 0.621191 0.726517 0.052163
O O12 0.375347 0.840015 0.129194
O O13 0.871769 0.844985 0.109318
O O14 0.148109 0.813007 0.585923
O O15 0.209840 0.579984 0.184980
O O16 0.992421 0.903996 0.134653
#
# Coordination Sequence:
#
# PCOD9013403 Si02
#       8
#     2   2   2   2   2   2   2   2
#     4   9  21  40  59  94 130 164 202 274 303 373
#     4  10  21  41  64  94 125 174 210 253 311 381
#     4   9  22  42  62  95 132 165 208 265 305 373
#     4   9  19  43  65  87 131 162 208 269 307 364
#     4  11  22  41  69  90 120 173 208 263 315 380
#     4   9  22  43  66  87 128 161 214 265 318 362
#     4  12  23  38  65  94 130 166 211 254 319 372
#     4   9  21  40  62  95 126 163 213 253 320 369
#
# _framework density 27.576302999999999
#
# number of rings (size 3 to 8) (size 9 to 14) (size 15 to 20)
#    1.500    0.750    0.000    2.625    1.750    4.000 
#    2.250    0.625    0.000    0.750    0.000    0.000 
#    0.000    0.000    0.000    0.000    0.000    0.000 
#
# Total GULP energy -89428.594257 kJ/mol
# GULP energy per Si atom -5589.287141 kJ/mol
# Density = 2.751354 g / cm^3
# Si number density = 27.576303 Si / 1000 Ang^3
#
#
#
# Elastic Constant Matrix: (Units=GPa)
#
#
# Indices 1 2 3 4 5 6 
#
# 1 92.9928 44.1080 29.7127 -1.3675 -16.9139 8.9018
# 2 44.1080 202.2898 63.3671 2.7784 -17.7711 -22.1961
# 3 29.7127 63.3671 97.8564 -18.2384 -6.2539 -5.3669
# 4 -1.3675 2.7784 -18.2384 57.6905 3.1035 -12.7172
# 5 -16.9139 -17.7711 -6.2539 3.1035 40.2874 -3.2372
# 6 8.9018 -22.1961 -5.3669 -12.7172 -3.2372 49.6642
#
#
#
# Elastic Compliance Matrix: (Units=1/GPa)
#
#
# Indices 1 2 3 4 5 6 
#
# 1 0.013850 -0.002080 -0.003108 -0.001639 0.004229 -0.003892
# 2 -0.002080 0.007136 -0.003898 -0.001072 0.001993 0.002996
# 3 -0.003108 -0.003898 0.014678 0.005175 -0.001011 0.001660
# 4 -0.001639 -0.001072 0.005175 0.020267 -0.001480 0.005467
# 5 0.004229 0.001993 -0.001011 -0.001480 0.027549 0.001440
# 6 -0.003892 0.002996 0.001660 0.005467 0.001440 0.023845
#
#
# Mechanical properties :
#
#
# Convention : Reuss Voigt Hill
#
# Bulk Modulus (GPa) = 57.16125 74.16830 65.66477
# Shear Modulus (GPa) = 38.07275 46.59183 42.33229
#
# Velocity S-wave (km/s) = 3.71972 4.11489 3.92228
# Velocity P-wave (km/s) = 6.26273 7.03779 6.66154
#
# Compressibility (1/GPa) = 0.01749437
#
# Stress axis : x y z
#
# Youngs Moduli (GPa) = 72.20012 140.12589 68.13105
#
# Poissons Ratio (x) = 0.29140 0.21172
# Poissons Ratio (y) = 0.15015 0.26557
# Poissons Ratio (z) = 0.22437 0.54619
#
# Static dielectric constant tensor:
#      x y z
#    x 2.189170 -0.036880 0.047090 
#    y -0.036880 2.090010 -0.074800 
#    z 0.047090 -0.074800 2.203510 
# 
# From -- ./inp_files/355215.got.cif
#   From: 2010.05.17/outbox.cif.g08.bks.cpg/sg2_178_cif.got.tgz:355215.got - 2010.06.03 11:33:40.
