data_PCOD9013173
_publ_section_title
;
Structure prediction by ZEFSAII (Michael W. Deem and Ramdas Pophale) SiO2 
 PCOD9013173
Probable space group: P -1
;
_chemical_formula_sum "Si O2"
_cell_formula_units_Z 14
_cell_length_a 14.515986
_cell_length_b 17.205074
_cell_length_c 10.936806
_cell_angle_alpha 32.175259
_cell_angle_beta 42.854742
_cell_angle_gamma 23.991748
_cell_volume 581.127828
_symmetry_space_group_name_H-M "P -1"
_symmetry_group_IT_number 2
_symmetry_cell_setting 'triclinic'
loop_
_space_group_symop_operation_xyz
x,y,z
-x,-y,-z
loop_
_atom_site_type_symbol
_atom_site_label
_atom_site_fract_x
_atom_site_fract_y
_atom_site_fract_z
Si Si1 0.723438 0.252696 0.920947
Si Si2 0.893834 0.458101 0.229010
Si Si3 0.330742 0.978146 0.592557
Si Si4 0.240998 0.205798 0.642376
Si Si5 0.271077 0.876196 0.169673
Si Si6 0.498741 0.281426 0.589742
Si Si7 0.022092 0.084506 0.482536
O O1 0.635047 0.262047 0.866025
O O2 0.643121 0.487814 0.668729
O O3 0.621146 0.234416 0.147019
O O4 0.000000 0.000000 0.000000
O O5 0.682343 0.676148 0.235061
O O6 0.092334 0.209938 0.446198
O O7 0.845412 0.371762 0.292517
O O8 0.000000 0.500000 0.000000
O O9 0.277823 0.098515 0.616215
O O10 0.540819 0.875545 0.457065
O O11 0.000000 0.500000 0.500000
O O12 0.243230 0.073644 0.915393
O O13 0.410178 0.729697 0.354501
O O14 0.035250 0.986685 0.264443
O O15 0.732676 0.050273 0.596921
O O16 0.000000 0.000000 0.500000
#
# Coordination Sequence:
#
# PCOD9013173 Si02
#       7
#     2   2   2   2   2   2   2
#     4  11  20  39  66  90 129 169 217 271 330 395
#     4  12  25  44  68  96 137 176 216 279 338 394
#     4  10  23  42  59  97 130 170 227 265 331 404
#     4  10  23  41  65  92 133 179 215 273 331 397
#     4  10  21  41  63  94 127 166 230 263 322 403
#     4  11  23  40  68  94 129 176 215 279 328 386
#     4  10  24  41  64 103 127 168 230 270 324 397
#
# _framework density 24.091086000000001
#
# number of rings (size 3 to 8) (size 9 to 14) (size 15 to 20)
#    0.000    1.429    2.857    1.286    4.000    4.000 
#    0.000    1.429    0.000    0.000    0.000    0.000 
#    0.000    0.000    0.000    0.000    0.000    0.000 
#
# Total GULP energy -78085.413243 kJ/mol
# GULP energy per Si atom -5577.529517 kJ/mol
# Density = 2.403625 g / cm^3
# Si number density = 24.091086 Si / 1000 Ang^3
#
#
#
# Elastic Constant Matrix: (Units=GPa)
#
#
# Indices 1 2 3 4 5 6 
#
# 1 62.2118 3.6756 13.1156 5.1100 4.3516 -8.6509
# 2 3.6756 155.7436 44.1297 34.1945 -20.4490 -19.5843
# 3 13.1156 44.1297 141.9491 36.2587 -18.3294 -7.4635
# 4 5.1100 34.1945 36.2587 47.2105 -15.3806 -8.8173
# 5 4.3516 -20.4490 -18.3294 -15.3806 37.6857 2.4265
# 6 -8.6509 -19.5843 -7.4635 -8.8173 2.4265 25.5245
#
#
#
# Elastic Compliance Matrix: (Units=1/GPa)
#
#
# Indices 1 2 3 4 5 6 
#
# 1 0.017520 0.000585 -0.001656 -0.001031 -0.003310 0.005861
# 2 0.000585 0.008442 -0.001218 -0.003643 0.002121 0.004859
# 3 -0.001656 -0.001218 0.009184 -0.005583 0.001777 -0.000908
# 4 -0.001031 -0.003643 -0.005583 0.031874 0.008084 0.005465
# 5 -0.003310 0.002121 0.001777 0.008084 0.032183 0.000758
# 6 0.005861 0.004859 -0.000908 0.005465 0.000758 0.046442
#
#
# Mechanical properties :
#
#
# Convention : Reuss Voigt Hill
#
# Bulk Modulus (GPa) = 32.71637 53.52736 43.12187
# Shear Modulus (GPa) = 31.16934 42.01637 36.59285
#
# Velocity S-wave (km/s) = 3.60086 4.18073 3.90158
# Velocity P-wave (km/s) = 5.55860 6.75068 6.18343
#
# Compressibility (1/GPa) = 0.03056574
#
# Stress axis : x y z
#
# Youngs Moduli (GPa) = 57.07780 118.46115 108.88109
#
# Poissons Ratio (x) = -0.06926 0.18034
# Poissons Ratio (y) = -0.03337 0.13266
# Poissons Ratio (z) = 0.09454 0.14434
#
# Static dielectric constant tensor:
#      x y z
#    x 2.072960 -0.011310 -0.000200 
#    y -0.011310 1.955830 0.032720 
#    z -0.000200 0.032720 1.922280 
# 
# From -- ./inp_files/467028.got.cif
#   From: 2010.05.17/outbox.cif.g08.bks.cpg/sg2_234_cif.got.tgz:467028.got - 2010.06.03 11:33:40.
