data_PCOD9013702
_publ_section_title
;
Structure prediction by ZEFSAII (Michael W. Deem and Ramdas Pophale) SiO2 
 PCOD9013702
Probable space group: P -1
;
_chemical_formula_sum "Si O2"
_cell_formula_units_Z 10
_cell_length_a 5.207236
_cell_length_b 8.718176
_cell_length_c 9.797461
_cell_angle_alpha 107.112731
_cell_angle_beta 106.880546
_cell_angle_gamma 56.429461
_cell_volume 349.605728
_symmetry_space_group_name_H-M "P -1"
_symmetry_group_IT_number 2
_symmetry_cell_setting 'triclinic'
loop_
_space_group_symop_operation_xyz
x,y,z
-x,-y,-z
loop_
_atom_site_type_symbol
_atom_site_label
_atom_site_fract_x
_atom_site_fract_y
_atom_site_fract_z
Si Si1 0.116919 0.125770 0.808931
Si Si2 0.269621 0.779812 0.558037
Si Si3 0.522084 0.531204 0.797333
Si Si4 0.317894 0.904016 0.032438
Si Si5 0.203948 0.343832 0.601692
O O1 0.135676 0.962015 0.676847
O O2 0.852110 0.345002 0.825546
O O3 0.998889 0.063412 0.918690
O O4 0.438867 0.122008 0.813634
O O5 0.475833 0.615357 0.658239
O O6 0.477066 0.778383 0.465034
O O7 0.994770 0.756408 0.446580
O O8 0.447063 0.701806 0.928464
O O9 0.268677 0.465724 0.753011
O O10 0.500000 0.000000 0.000000
O O11 0.000000 0.500000 0.500000
#
# Coordination Sequence:
#
# PCOD9013702 Si02
#       5
#     2   2   2   2   2
#     4  10  23  41  64  92 126 167 215 264 320 382
#     4  10  23  42  66  94 138 165 207 264 324 375
#     4  10  21  41  65  94 124 169 216 257 318 389
#     4  10  23  43  62  89 128 165 212 276 321 369
#     4  10  21  41  65  96 133 171 204 263 322 379
#
# _framework density 28.603653000000001
#
# number of rings (size 3 to 8) (size 9 to 14) (size 15 to 20)
#    0.000    2.000    0.000    3.000    8.400    2.400 
#   14.400    0.000    0.000    0.000    0.000    0.000 
#    0.000    0.000    0.000    0.000    0.000    0.000 
#
# Total GULP energy -55887.172199 kJ/mol
# GULP energy per Si atom -5588.717220 kJ/mol
# Density = 2.853855 g / cm^3
# Si number density = 28.603653 Si / 1000 Ang^3
#
#
#
# Elastic Constant Matrix: (Units=GPa)
#
#
# Indices 1 2 3 4 5 6 
#
# 1 282.4003 124.4111 84.3465 37.0368 54.3096 -8.6746
# 2 124.4111 243.2756 81.5956 11.8967 -0.0851 1.6905
# 3 84.3465 81.5956 99.3903 48.4522 11.5300 7.1589
# 4 37.0368 11.8967 48.4522 83.5788 7.3221 2.2012
# 5 54.3096 -0.0851 11.5300 7.3221 69.9092 -10.2417
# 6 -8.6746 1.6905 7.1589 2.2012 -10.2417 48.3944
#
#
#
# Elastic Compliance Matrix: (Units=1/GPa)
#
#
# Indices 1 2 3 4 5 6 
#
# 1 0.006274 -0.002253 -0.002798 -0.000484 -0.004256 0.000739
# 2 -0.002253 0.007006 -0.005651 0.003047 0.002455 0.000568
# 3 -0.002798 -0.005651 0.022786 -0.010995 -0.000933 -0.003372
# 4 -0.000484 0.003047 -0.010995 0.018066 0.000403 0.000697
# 5 -0.004256 0.002455 -0.000933 0.000403 0.018183 0.003119
# 6 0.000739 0.000568 -0.003372 0.000697 0.003119 0.021903
#
#
# Mechanical properties :
#
#
# Convention : Reuss Voigt Hill
#
# Bulk Modulus (GPa) = 68.20315 133.97474 101.08895
# Shear Modulus (GPa) = 41.49053 62.69066 52.09059
#
# Velocity S-wave (km/s) = 3.81272 4.68664 4.27208
# Velocity P-wave (km/s) = 6.57863 8.73076 7.72996
#
# Compressibility (1/GPa) = 0.01466208
#
# Stress axis : x y z
#
# Youngs Moduli (GPa) = 159.38364 142.73675 43.88618
#
# Poissons Ratio (x) = 0.32158 0.12281
# Poissons Ratio (y) = 0.35908 0.24799
# Poissons Ratio (z) = 0.44603 0.80656
#
# Static dielectric constant tensor:
#      x y z
#    x 2.269100 0.067910 -0.151580 
#    y 0.067910 2.079880 0.051920 
#    z -0.151580 0.051920 1.826050 
# 
# From -- ./inp_files/360783.got.cif
#   From: 2010.05.17/outbox.cif.g08.bks.cpg/sg2_181_cif.got.tgz:360783.got - 2010.06.03 11:33:40.
