data_PCOD9013580
_publ_section_title
;
Structure prediction by ZEFSAII (Michael W. Deem and Ramdas Pophale) SiO2 
 PCOD9013580
Probable space group: P -1
;
_chemical_formula_sum "Si O2"
_cell_formula_units_Z 14
_cell_length_a 9.221812
_cell_length_b 10.220114
_cell_length_c 8.311808
_cell_angle_alpha 100.979591
_cell_angle_beta 133.563790
_cell_angle_gamma 82.634724
_cell_volume 557.240857
_symmetry_space_group_name_H-M "P -1"
_symmetry_group_IT_number 2
_symmetry_cell_setting 'triclinic'
loop_
_space_group_symop_operation_xyz
x,y,z
-x,-y,-z
loop_
_atom_site_type_symbol
_atom_site_label
_atom_site_fract_x
_atom_site_fract_y
_atom_site_fract_z
Si Si1 0.010957 0.892958 0.336876
Si Si2 0.488446 0.478504 0.172036
Si Si3 0.177498 0.710426 0.661991
Si Si4 0.348327 0.971529 0.024676
Si Si5 0.097382 0.605907 0.912865
Si Si6 0.363623 0.371533 0.421474
Si Si7 0.345139 0.845217 0.332553
O O1 0.036360 0.754137 0.418597
O O2 0.201714 0.912906 0.371299
O O3 0.000000 0.000000 0.500000
O O4 0.815405 0.911720 0.083815
O O5 0.621328 0.349689 0.276113
O O6 0.608507 0.604893 0.361745
O O7 0.500000 0.500000 0.000000
O O8 0.254446 0.486575 0.035989
O O9 0.239049 0.839073 0.843151
O O10 0.093132 0.619017 0.718051
O O11 0.406663 0.935430 0.245434
O O12 0.500000 0.000000 0.000000
O O13 0.867364 0.608427 0.787013
O O14 0.205836 0.728013 0.118831
O O15 0.500000 0.500000 0.500000
O O16 0.473391 0.230507 0.455214
#
# Coordination Sequence:
#
# PCOD9013580 Si02
#       7
#     2   2   2   2   2   2   2
#     4  10  21  41  65  89 126 167 219 272 322 382
#     4   9  19  38  60  93 128 161 212 259 319 389
#     4   9  19  39  62  91 127 166 217 266 321 383
#     4  10  22  41  63  94 128 167 223 269 317 384
#     4   9  21  40  64  90 131 175 208 264 326 394
#     4  11  23  40  62  96 132 166 218 261 322 403
#     4  10  22  43  66  93 133 175 212 268 331 387
#
# _framework density 25.123788000000001
#
# number of rings (size 3 to 8) (size 9 to 14) (size 15 to 20)
#    0.000    2.286    0.000    2.143    2.000    4.571 
#   12.857    2.857    0.000    0.000    0.000    0.000 
#    0.000    0.000    0.000    0.000    0.000    0.000 
#
# Total GULP energy -78062.632542 kJ/mol
# GULP energy per Si atom -5575.902324 kJ/mol
# Density = 2.506660 g / cm^3
# Si number density = 25.123788 Si / 1000 Ang^3
#
#
#
# Elastic Constant Matrix: (Units=GPa)
#
#
# Indices 1 2 3 4 5 6 
#
# 1 195.1655 50.6265 86.6445 -45.6742 4.9915 -6.2705
# 2 50.6265 65.8712 42.8322 -35.5599 14.0742 -18.2005
# 3 86.6445 42.8322 89.4076 -33.3096 32.1294 -12.4327
# 4 -45.6742 -35.5599 -33.3096 57.7089 -13.1443 3.5491
# 5 4.9915 14.0742 32.1294 -13.1443 60.3954 -7.3565
# 6 -6.2705 -18.2005 -12.4327 3.5491 -7.3565 33.3401
#
#
#
# Elastic Compliance Matrix: (Units=1/GPa)
#
#
# Indices 1 2 3 4 5 6 
#
# 1 0.010882 -0.001349 -0.011206 0.002737 0.005741 -0.001893
# 2 -0.001349 0.031846 -0.007451 0.013729 0.001246 0.013166
# 3 -0.011206 -0.007451 0.031274 0.001397 -0.013380 0.002386
# 4 0.002737 0.013729 0.001397 0.029046 0.002893 0.006077
# 5 0.005741 0.001246 -0.013380 0.002893 0.023748 0.001702
# 6 -0.001893 0.013166 0.002386 0.006077 0.001702 0.037444
#
#
# Mechanical properties :
#
#
# Convention : Reuss Voigt Hill
#
# Bulk Modulus (GPa) = 29.42019 78.96121 54.19070
# Shear Modulus (GPa) = 23.19313 41.64496 32.41905
#
# Velocity S-wave (km/s) = 3.04164 4.07577 3.59607
# Velocity P-wave (km/s) = 4.90622 7.32436 6.23367
#
# Compressibility (1/GPa) = 0.03399027
#
# Stress axis : x y z
#
# Youngs Moduli (GPa) = 91.89904 31.40115 31.97508
#
# Poissons Ratio (x) = 0.04235 0.35830
# Poissons Ratio (y) = 0.12395 0.23826
# Poissons Ratio (z) = 1.02979 0.23398
#
# Static dielectric constant tensor:
#      x y z
#    x 2.198900 -0.041090 -0.161330 
#    y -0.041090 2.069640 0.005600 
#    z -0.161330 0.005600 2.152620 
# 
# From -- ./inp_files/179550.got.cif
#   From: 2010.05.17/outbox.cif.g08.bks.cpg/sg2_90_cif.got.tgz:179550.got - 2010.06.03 11:33:40.
