data_PCOD9013013
_publ_section_title
;
Structure prediction by ZEFSAII (Michael W. Deem and Ramdas Pophale) SiO2 
 PCOD9013013
Probable space group: P -1
;
_chemical_formula_sum "Si O2"
_cell_formula_units_Z 16
_cell_length_a 12.837828
_cell_length_b 15.684383
_cell_length_c 8.970539
_cell_angle_alpha 132.562216
_cell_angle_beta 111.645316
_cell_angle_gamma 38.122985
_cell_volume 766.555707
_symmetry_space_group_name_H-M "P -1"
_symmetry_group_IT_number 2
_symmetry_cell_setting 'triclinic'
loop_
_space_group_symop_operation_xyz
x,y,z
-x,-y,-z
loop_
_atom_site_type_symbol
_atom_site_label
_atom_site_fract_x
_atom_site_fract_y
_atom_site_fract_z
Si Si1 0.471950 0.721725 0.976507
Si Si2 0.658617 0.375897 0.809730
Si Si3 0.650690 0.962600 0.107919
Si Si4 0.108695 0.733834 0.690482
Si Si5 0.117859 0.290481 0.331295
Si Si6 0.499396 0.028839 0.705128
Si Si7 0.120146 0.911285 0.170789
Si Si8 0.523091 0.324579 0.411686
O O1 0.639971 0.519815 0.903181
O O2 0.423839 0.706558 0.771175
O O3 0.509651 0.826287 0.100305
O O4 0.297247 0.839921 0.126541
O O5 0.834066 0.185731 0.762740
O O6 0.608864 0.336545 0.596325
O O7 0.500000 0.500000 0.000000
O O8 0.657096 0.912056 0.219572
O O9 0.576644 0.151635 0.281064
O O10 0.827901 0.804280 0.914194
O O11 0.500000 0.000000 0.000000
O O12 0.309571 0.522147 0.533176
O O13 0.978664 0.730962 0.650065
O O14 0.096892 0.827418 0.939007
O O15 0.042912 0.866298 0.674078
O O16 0.000000 0.500000 0.500000
O O17 0.306712 0.168737 0.364340
O O18 0.500000 0.000000 0.500000
#
# Coordination Sequence:
#
# PCOD9013013 Si02
#       8
#     2   2   2   2   2   2   2   2
#     4  11  21  41  63  94 124 163 223 257 305 385
#     4  10  22  37  62  92 124 167 214 258 304 369
#     4  10  21  41  62  96 119 163 219 257 301 387
#     4  11  21  36  67  91 127 169 201 255 331 367
#     4  11  23  42  66  93 127 163 210 259 322 381
#     4  11  24  41  70  92 125 167 214 264 313 372
#     4  10  22  41  60  89 130 165 212 257 316 375
#     4  12  21  37  70  90 124 166 220 260 307 381
#
# _framework density 20.872586999999999
#
# number of rings (size 3 to 8) (size 9 to 14) (size 15 to 20)
#    0.000    1.250    6.250    1.875    3.500    1.000 
#    0.000    1.250    5.500    0.000    0.000    0.000 
#    0.000    0.000    0.000    0.000    0.000    0.000 
#
# Total GULP energy -89381.129880 kJ/mol
# GULP energy per Si atom -5586.320617 kJ/mol
# Density = 2.082508 g / cm^3
# Si number density = 20.872587 Si / 1000 Ang^3
#
#
#
# Elastic Constant Matrix: (Units=GPa)
#
#
# Indices 1 2 3 4 5 6 
#
# 1 43.4972 29.4492 18.5689 14.8102 4.0668 17.8286
# 2 29.4492 143.8933 57.7040 12.6613 2.7887 32.3266
# 3 18.5689 57.7040 99.7949 15.0929 1.2500 17.6001
# 4 14.8102 12.6613 15.0929 44.1636 15.3233 1.7376
# 5 4.0668 2.7887 1.2500 15.3233 24.5334 5.8124
# 6 17.8286 32.3266 17.6001 1.7376 5.8124 32.9425
#
#
#
# Elastic Compliance Matrix: (Units=1/GPa)
#
#
# Indices 1 2 3 4 5 6 
#
# 1 0.035449 -0.002218 -0.000444 -0.012632 0.006370 -0.017229
# 2 -0.002218 0.010917 -0.004430 -0.001232 0.001878 -0.007412
# 3 -0.000444 -0.004430 0.013838 -0.004343 0.003334 -0.003165
# 4 -0.012632 -0.001232 -0.004343 0.036260 -0.023163 0.012540
# 5 0.006370 0.001878 0.003334 -0.023163 0.057582 -0.016010
# 6 -0.017229 -0.007412 -0.003165 0.012540 -0.016010 0.050808
#
#
# Mechanical properties :
#
#
# Convention : Reuss Voigt Hill
#
# Bulk Modulus (GPa) = 21.73000 55.40327 38.56663
# Shear Modulus (GPa) = 21.33307 32.42547 26.87927
#
# Velocity S-wave (km/s) = 3.20044 3.94572 3.59246
# Velocity P-wave (km/s) = 4.90820 6.88182 5.97703
#
# Compressibility (1/GPa) = 0.04601933
#
# Stress axis : x y z
#
# Youngs Moduli (GPa) = 28.20991 91.59815 72.26583
#
# Poissons Ratio (x) = 0.20318 0.03209
# Poissons Ratio (y) = 0.06258 0.32012
# Poissons Ratio (z) = 0.01253 0.40576
#
# Static dielectric constant tensor:
#      x y z
#    x 1.822450 0.015230 -0.073040 
#    y 0.015230 1.778340 -0.002460 
#    z -0.073040 -0.002460 1.785970 
# 
# From -- ./inp_files/274425.got.cif
#   From: 2010.05.17/outbox.cif.g08.bks.cpg/sg2_138_cif.got.tgz:274425.got - 2010.06.03 11:33:40.
