data_PCOD9013740
_publ_section_title
;
Structure prediction by ZEFSAII (Michael W. Deem and Ramdas Pophale) SiO2 
 PCOD9013740
Probable space group: P -1
;
_chemical_formula_sum "Si O2"
_cell_formula_units_Z 16
_cell_length_a 16.636817
_cell_length_b 11.508094
_cell_length_c 8.757179
_cell_angle_alpha 64.946010
_cell_angle_beta 63.337599
_cell_angle_gamma 119.664397
_cell_volume 723.620125
_symmetry_space_group_name_H-M "P -1"
_symmetry_group_IT_number 2
_symmetry_cell_setting 'triclinic'
loop_
_space_group_symop_operation_xyz
x,y,z
-x,-y,-z
loop_
_atom_site_type_symbol
_atom_site_label
_atom_site_fract_x
_atom_site_fract_y
_atom_site_fract_z
Si Si1 0.463024 0.307872 0.946346
Si Si2 0.794227 0.192199 0.725643
Si Si3 0.107433 0.958165 0.822159
Si Si4 0.634453 0.256305 0.317978
Si Si5 0.839576 0.457603 0.754292
Si Si6 0.116642 0.538596 0.792275
Si Si7 0.175776 0.311755 0.547886
Si Si8 0.480892 0.330635 0.288326
O O1 0.650120 0.502203 0.613345
O O2 0.436177 0.429097 0.887771
O O3 0.469653 0.292773 0.134225
O O4 0.332830 0.059006 0.108140
O O5 0.741299 0.216916 0.900392
O O6 0.856503 0.371921 0.448657
O O7 0.962284 0.321958 0.562073
O O8 0.144810 0.134352 0.600748
O O9 0.285513 0.109785 0.628509
O O10 0.994666 0.722788 0.960440
O O11 0.989892 0.854234 0.122588
O O12 0.696921 0.277075 0.413556
O O13 0.571668 0.324981 0.303903
O O14 0.500000 0.000000 0.500000
O O15 0.801690 0.431007 0.977666
O O16 0.786869 0.525071 0.682612
O O17 0.000000 0.500000 0.000000
#
# Coordination Sequence:
#
# PCOD9013740 Si02
#       8
#     2   2   2   2   2   2   2   2
#     4  10  21  41  65  95 126 168 214 267 319 383
#     4  11  24  41  66  93 130 170 213 269 322 381
#     4  10  22  41  66  93 126 170 208 264 323 385
#     4  12  25  40  63  96 134 169 215 269 322 380
#     4  11  24  42  63  96 128 171 218 266 319 382
#     4  12  23  40  63  96 130 169 215 262 328 383
#     4  10  21  42  68  91 125 167 216 262 319 381
#     4  10  22  40  65  94 132 166 209 267 328 375
#
# _framework density 22.111049999999999
#
# number of rings (size 3 to 8) (size 9 to 14) (size 15 to 20)
#    0.000    1.250    3.750    2.250    0.000    2.500 
#    0.000    1.250    0.000    5.250    0.000    0.000 
#    0.000    0.000    0.000    0.000    0.000    0.000 
#
# Total GULP energy -89304.458989 kJ/mol
# GULP energy per Si atom -5581.528687 kJ/mol
# Density = 2.206072 g / cm^3
# Si number density = 22.111050 Si / 1000 Ang^3
#
#
#
# Elastic Constant Matrix: (Units=GPa)
#
#
# Indices 1 2 3 4 5 6 
#
# 1 156.3852 49.2120 15.0929 -14.7538 -13.6231 -13.5309
# 2 49.2120 98.7994 24.1384 -37.7162 -4.5410 -10.0348
# 3 15.0929 24.1384 60.1762 -9.9620 -22.8431 -10.4758
# 4 -14.7538 -37.7162 -9.9620 48.7494 -7.0084 4.2871
# 5 -13.6231 -4.5410 -22.8431 -7.0084 26.5449 -2.5296
# 6 -13.5309 -10.0348 -10.4758 4.2871 -2.5296 19.2048
#
#
#
# Elastic Compliance Matrix: (Units=1/GPa)
#
#
# Indices 1 2 3 4 5 6 
#
# 1 0.008595 -0.003744 0.003712 0.000987 0.007887 0.006943
# 2 -0.003744 0.017619 -0.002982 0.011943 0.001920 0.002529
# 3 0.003712 -0.002982 0.037324 0.009832 0.038424 0.024283
# 4 0.000987 0.011943 0.009832 0.034403 0.020794 0.007358
# 5 0.007887 0.001920 0.038424 0.020794 0.083836 0.033921
# 6 0.006943 0.002529 0.024283 0.007358 0.033921 0.074355
#
#
# Mechanical properties :
#
#
# Convention : Reuss Voigt Hill
#
# Bulk Modulus (GPa) = 17.38828 54.69415 36.04121
# Shear Modulus (GPa) = 17.77271 34.02764 25.90017
#
# Velocity S-wave (km/s) = 2.83820 3.92719 3.42624
# Velocity P-wave (km/s) = 4.31528 6.73451 5.65576
#
# Compressibility (1/GPa) = 0.05751000
#
# Stress axis : x y z
#
# Youngs Moduli (GPa) = 116.34332 56.75662 26.79259
#
# Poissons Ratio (x) = 0.21249 -0.09946
# Poissons Ratio (y) = 0.43557 0.07990
# Poissons Ratio (z) = -0.43187 0.16926
#
# Static dielectric constant tensor:
#      x y z
#    x 2.211010 -0.305090 -0.050850 
#    y -0.305090 2.028520 0.070720 
#    z -0.050850 0.070720 1.852370 
# 
# From -- ./inp_files/306721.got.cif
#   From: 2010.05.17/outbox.cif.g08.bks.cpg/sg2_154_cif.got.tgz:306721.got - 2010.06.03 11:33:40.
