data_PCOD9013256
_publ_section_title
;
Structure prediction by ZEFSAII (Michael W. Deem and Ramdas Pophale) SiO2 
 PCOD9013256
Probable space group: P -1
;
_chemical_formula_sum "Si O2"
_cell_formula_units_Z 16
_cell_length_a 7.982231
_cell_length_b 9.496014
_cell_length_c 25.364714
_cell_angle_alpha 29.609680
_cell_angle_beta 55.788791
_cell_angle_gamma 65.055361
_cell_volume 774.921489
_symmetry_space_group_name_H-M "P -1"
_symmetry_group_IT_number 2
_symmetry_cell_setting 'triclinic'
loop_
_space_group_symop_operation_xyz
x,y,z
-x,-y,-z
loop_
_atom_site_type_symbol
_atom_site_label
_atom_site_fract_x
_atom_site_fract_y
_atom_site_fract_z
Si Si1 0.964651 0.794703 0.885022
Si Si2 0.720797 0.711944 0.744004
Si Si3 0.676067 0.721762 0.868430
Si Si4 0.378205 0.046044 0.682381
Si Si5 0.361645 0.641454 0.298734
Si Si6 0.350657 0.842710 0.123278
Si Si7 0.516452 0.406952 0.450470
Si Si8 0.061132 0.769476 0.522971
O O1 0.876713 0.718181 0.867845
O O2 0.803790 0.950387 0.895093
O O3 0.179134 0.991442 0.771468
O O4 0.000000 0.500000 0.000000
O O5 0.706026 0.633191 0.832849
O O6 0.771680 0.448441 0.786400
O O7 0.493637 0.772586 0.749011
O O8 0.864214 0.016139 0.608607
O O9 0.636788 0.051052 0.772919
O O10 0.500000 0.500000 0.000000
O O11 0.361684 0.155810 0.589847
O O12 0.514780 0.306322 0.605489
O O13 0.452037 0.733186 0.194480
O O14 0.472063 0.452181 0.381980
O O15 0.130368 0.472114 0.381861
O O16 0.500000 0.000000 0.000000
O O17 0.743701 0.345515 0.447135
O O18 0.000000 0.000000 0.500000
#
# Coordination Sequence:
#
# PCOD9013256 Si02
#       8
#     2   2   2   2   2   2   2   2
#     4  11  24  42  69  94 132 179 227 279 334 404
#     4  11  22  42  67  95 137 172 213 288 338 394
#     4  11  23  41  65  98 128 173 229 278 334 406
#     4  10  21  41  64 100 131 168 222 278 336 397
#     4  11  23  43  71  98 131 185 225 275 345 414
#     4  11  23  43  67  95 132 180 223 278 348 398
#     4  10  22  40  70  96 133 175 223 279 331 408
#     4  11  24  43  64 101 141 174 221 277 344 401
#
# _framework density 20.647251000000001
#
# number of rings (size 3 to 8) (size 9 to 14) (size 15 to 20)
#    0.000    1.250    2.500    4.500    1.750    1.000 
#    0.000    1.875    0.000    0.000    0.000    0.000 
#    0.000    0.000    0.000    0.000    0.000    0.000 
#
# Total GULP energy -89226.463336 kJ/mol
# GULP energy per Si atom -5576.653958 kJ/mol
# Density = 2.060026 g / cm^3
# Si number density = 20.647251 Si / 1000 Ang^3
#
#
#
# Elastic Constant Matrix: (Units=GPa)
#
#
# Indices 1 2 3 4 5 6 
#
# 1 67.6027 34.0011 52.5310 3.3929 26.2554 3.6802
# 2 34.0011 92.2042 40.5256 2.1329 17.4273 7.8267
# 3 52.5310 40.5256 133.4916 16.1076 21.3070 -1.4451
# 4 3.3929 2.1329 16.1076 40.0252 8.4306 2.4299
# 5 26.2554 17.4273 21.3070 8.4306 44.2651 7.8910
# 6 3.6802 7.8267 -1.4451 2.4299 7.8910 27.9706
#
#
#
# Elastic Compliance Matrix: (Units=1/GPa)
#
#
# Indices 1 2 3 4 5 6 
#
# 1 0.027611 -0.004568 -0.008088 0.003548 -0.011385 0.000131
# 2 -0.004568 0.014094 -0.002439 0.001086 -0.001303 -0.003196
# 3 -0.008088 -0.002439 0.011892 -0.004207 0.000367 0.002623
# 4 0.003548 0.001086 -0.004207 0.027574 -0.005429 -0.001852
# 5 -0.011385 -0.001303 0.000367 -0.005429 0.031899 -0.006646
# 6 0.000131 -0.003196 0.002623 -0.001852 -0.006646 0.038800
#
#
# Mechanical properties :
#
#
# Convention : Reuss Voigt Hill
#
# Bulk Modulus (GPa) = 42.72294 60.82376 51.77335
# Shear Modulus (GPa) = 26.33474 33.53490 29.93482
#
# Velocity S-wave (km/s) = 3.57523 4.03449 3.81178
# Velocity P-wave (km/s) = 6.14653 7.15718 6.67102
#
# Compressibility (1/GPa) = 0.02340663
#
# Stress axis : x y z
#
# Youngs Moduli (GPa) = 36.21718 70.95038 84.09263
#
# Poissons Ratio (x) = 0.32413 0.68015
# Poissons Ratio (y) = 0.16546 0.20508
# Poissons Ratio (z) = 0.29293 0.17303
#
# Static dielectric constant tensor:
#      x y z
#    x 1.786310 -0.032240 -0.010400 
#    y -0.032240 1.731530 0.021420 
#    z -0.010400 0.021420 1.791730 
# 
# From -- ./inp_files/606554.got.cif
#   From: 2010.05.17/outbox.cif.g08.bks.cpg/sg2_304_cif.got.tgz:606554.got - 2010.06.03 11:33:40.
