data_PCOD9013888
_publ_section_title
;
Structure prediction by ZEFSAII (Michael W. Deem and Ramdas Pophale) SiO2 
 PCOD9013888
Probable space group: P -1
;
_chemical_formula_sum "Si O2"
_cell_formula_units_Z 16
_cell_length_a 12.892105
_cell_length_b 7.120295
_cell_length_c 21.142241
_cell_angle_alpha 97.036423
_cell_angle_beta 19.150112
_cell_angle_gamma 95.224996
_cell_volume 630.047348
_symmetry_space_group_name_H-M "P -1"
_symmetry_group_IT_number 2
_symmetry_cell_setting 'triclinic'
loop_
_space_group_symop_operation_xyz
x,y,z
-x,-y,-z
loop_
_atom_site_type_symbol
_atom_site_label
_atom_site_fract_x
_atom_site_fract_y
_atom_site_fract_z
Si Si1 0.720993 0.759007 0.401700
Si Si2 0.760951 0.229317 0.800459
Si Si3 0.717040 0.282875 0.234418
Si Si4 0.539193 0.390573 0.155562
Si Si5 0.765845 0.736002 0.235334
Si Si6 0.575295 0.796273 0.211270
Si Si7 0.788205 0.550136 0.887049
Si Si8 0.197560 0.165116 0.428096
O O1 0.436989 0.779895 0.614745
O O2 0.652796 0.814964 0.371468
O O3 0.019601 0.850421 0.270501
O O4 0.851456 0.533122 0.310726
O O5 0.774888 0.451001 0.821606
O O6 0.918573 0.189797 0.641199
O O7 0.377596 0.237114 0.015529
O O8 0.734098 0.509824 0.236765
O O9 0.484182 0.238964 0.309884
O O10 0.068365 0.186686 0.018379
O O11 0.515437 0.583467 0.217484
O O12 0.236040 0.281060 0.345670
O O13 0.616326 0.456529 0.042653
O O14 0.854418 0.255993 0.984948
O O15 0.591003 0.823989 0.278708
O O16 0.309610 0.945960 0.343646
#
# Coordination Sequence:
#
# PCOD9013888 Si02
#       8
#     2   2   2   2   2   2   2   2
#     4   8  16  28  51  77 100 130 174 209 247 303
#     4   8  17  33  53  78  96 129 176 218 254 295
#     4  10  17  30  47  74 106 136 168 200 243 302
#     4  10  19  34  52  77 102 136 171 205 252 306
#     4  10  17  30  49  74 107 138 167 203 245 302
#     4  11  21  32  49  77 112 140 161 200 252 301
#     4   8  16  33  56  73  99 130 170 221 261 286
#     4  11  20  33  52  76 107 135 171 206 246 306
#
# _framework density 25.394915000000001
#
# number of rings (size 3 to 8) (size 9 to 14) (size 15 to 20)
#    0.750    1.750    2.500    1.500    0.000    0.500 
#    0.000    4.375    0.000    0.000    0.000    6.125 
#    0.000    0.000    0.000    0.000    0.000    0.000 
#
# Total GULP energy -89167.777883 kJ/mol
# GULP energy per Si atom -5572.986118 kJ/mol
# Density = 2.533712 g / cm^3
# Si number density = 25.394915 Si / 1000 Ang^3
#
#
#
# Elastic Constant Matrix: (Units=GPa)
#
#
# Indices 1 2 3 4 5 6 
#
# 1 91.3751 3.7628 28.6248 -4.3257 39.8086 -8.6784
# 2 3.7628 58.6806 33.6738 4.5688 6.7773 -0.4270
# 3 28.6248 33.6738 120.4429 13.5885 39.7126 2.3855
# 4 -4.3257 4.5688 13.5885 22.6945 0.3381 -2.8394
# 5 39.8086 6.7773 39.7126 0.3381 40.5463 3.0055
# 6 -8.6784 -0.4270 2.3855 -2.8394 3.0055 31.8625
#
#
#
# Elastic Compliance Matrix: (Units=1/GPa)
#
#
# Indices 1 2 3 4 5 6 
#
# 1 0.021807 -0.000126 0.002173 0.004297 -0.024179 0.008439
# 2 -0.000126 0.020591 -0.006827 -0.000077 0.003337 0.000431
# 3 0.002173 -0.006827 0.016029 -0.007536 -0.016644 0.000199
# 4 0.004297 -0.000077 -0.007536 0.050124 0.002314 0.005982
# 5 -0.024179 0.003337 -0.016644 0.002314 0.064958 -0.011216
# 6 0.008439 0.000431 0.000199 0.005982 -0.011216 0.035265
#
#
# Mechanical properties :
#
#
# Convention : Reuss Voigt Hill
#
# Bulk Modulus (GPa) = 20.46378 44.73569 32.59973
# Shear Modulus (GPa) = 21.31069 32.64980 26.98024
#
# Velocity S-wave (km/s) = 2.89999 3.58953 3.26303
# Velocity P-wave (km/s) = 4.39192 5.90202 5.20206
#
# Compressibility (1/GPa) = 0.04886683
#
# Stress axis : x y z
#
# Youngs Moduli (GPa) = 45.85653 48.56501 62.38657
#
# Poissons Ratio (x) = 0.00611 -0.13555
# Poissons Ratio (y) = 0.00577 0.42592
# Poissons Ratio (z) = -0.09964 0.33156
#
# Static dielectric constant tensor:
#      x y z
#    x 2.268150 -0.067680 -0.202250 
#    y -0.067680 2.080730 -0.004730 
#    z -0.202250 -0.004730 2.070200 
# 
# From -- ./inp_files/597152.got.cif
#   From: 2010.05.17/outbox.cif.g08.bks.cpg/sg2_299_cif.got.tgz:597152.got - 2010.06.03 11:33:40.
