data_PCOD9013894
_publ_section_title
;
Structure prediction by ZEFSAII (Michael W. Deem and Ramdas Pophale) SiO2 
 PCOD9013894
Probable space group: P -1
;
_chemical_formula_sum "Si O2"
_cell_formula_units_Z 14
_cell_length_a 11.534147
_cell_length_b 9.074577
_cell_length_c 16.834791
_cell_angle_alpha 140.390991
_cell_angle_beta 43.607359
_cell_angle_gamma 144.230298
_cell_volume 633.063251
_symmetry_space_group_name_H-M "P -1"
_symmetry_group_IT_number 2
_symmetry_cell_setting 'triclinic'
loop_
_space_group_symop_operation_xyz
x,y,z
-x,-y,-z
loop_
_atom_site_type_symbol
_atom_site_label
_atom_site_fract_x
_atom_site_fract_y
_atom_site_fract_z
Si Si1 0.583975 0.856408 0.791127
Si Si2 0.557790 0.718680 0.301170
Si Si3 0.384896 0.160115 0.411873
Si Si4 0.186484 0.821520 0.032825
Si Si5 0.162191 0.166424 0.060030
Si Si6 0.195360 0.810501 0.513696
Si Si7 0.509592 0.252875 0.819736
O O1 0.514948 0.542938 0.715611
O O2 0.676653 0.927163 0.686006
O O3 0.380285 0.850637 0.905059
O O4 0.741308 0.053743 0.863257
O O5 0.381080 0.772646 0.407170
O O6 0.569515 0.657235 0.178115
O O7 0.759340 0.985808 0.350573
O O8 0.500000 0.500000 0.500000
O O9 0.219741 0.978577 0.489295
O O10 0.529851 0.048206 0.304115
O O11 0.000000 0.500000 0.000000
O O12 0.110795 0.982270 0.087319
O O13 0.251803 0.491288 0.174064
O O14 0.369366 0.209568 0.943907
O O15 0.000000 0.000000 0.000000
O O16 0.000000 0.500000 0.500000
#
# Coordination Sequence:
#
# PCOD9013894 Si02
#       7
#     2   2   2   2   2   2   2
#     4  11  23  45  68  92 142 178 221 284 344 413
#     4  10  21  41  66  88 131 180 216 271 345 401
#     4  11  22  43  71  97 137 184 224 279 346 409
#     4  11  26  42  66 101 134 176 229 285 351 400
#     4  11  24  40  66  97 132 171 231 283 336 400
#     4  10  23  42  65  97 132 173 232 276 329 408
#     4  10  23  42  65  93 130 179 227 271 342 409
#
# _framework density 22.114692000000002
#
# number of rings (size 3 to 8) (size 9 to 14) (size 15 to 20)
#    0.000    1.429    4.286    0.000    4.000    3.429 
#    0.000    0.714    0.000    0.000    0.000    0.000 
#    0.000    0.000    0.000    0.000    0.000    0.000 
#
# Total GULP energy -78051.667671 kJ/mol
# GULP energy per Si atom -5575.119119 kJ/mol
# Density = 2.206436 g / cm^3
# Si number density = 22.114692 Si / 1000 Ang^3
#
#
#
# Elastic Constant Matrix: (Units=GPa)
#
#
# Indices 1 2 3 4 5 6 
#
# 1 126.1477 75.3139 44.0360 12.5586 32.8595 -22.4826
# 2 75.3139 156.5104 56.3100 34.7410 28.4165 -13.3160
# 3 44.0360 56.3100 86.0782 17.4050 22.9574 -2.7760
# 4 12.5586 34.7410 17.4050 40.6465 -3.4284 8.2026
# 5 32.8595 28.4165 22.9574 -3.4284 45.5469 5.6269
# 6 -22.4826 -13.3160 -2.7760 8.2026 5.6269 37.4831
#
#
#
# Elastic Compliance Matrix: (Units=1/GPa)
#
#
# Indices 1 2 3 4 5 6 
#
# 1 0.015191 -0.003059 -0.002067 -0.004059 -0.009574 0.010197
# 2 -0.003059 0.012712 -0.002988 -0.010240 -0.005675 0.005552
# 3 -0.002067 -0.002988 0.017175 -0.004830 -0.005776 0.000895
# 4 -0.004059 -0.010240 -0.004830 0.041784 0.017138 -0.018146
# 5 -0.009574 -0.005675 -0.005776 0.017138 0.038798 -0.017761
# 6 0.010197 0.005552 0.000895 -0.018146 -0.017761 0.041471
#
#
# Mechanical properties :
#
#
# Convention : Reuss Voigt Hill
#
# Bulk Modulus (GPa) = 34.66273 80.00624 57.33449
# Shear Modulus (GPa) = 25.91001 37.60706 31.75854
#
# Velocity S-wave (km/s) = 3.42661 4.12824 3.79368
# Velocity P-wave (km/s) = 5.60032 7.67982 6.72098
#
# Compressibility (1/GPa) = 0.02884943
#
# Stress axis : x y z
#
# Youngs Moduli (GPa) = 65.83061 78.66487 58.22357
#
# Poissons Ratio (x) = 0.24067 0.12034
# Poissons Ratio (y) = 0.20140 0.17396
# Poissons Ratio (z) = 0.13607 0.23504
#
# Static dielectric constant tensor:
#      x y z
#    x 1.743880 0.055010 0.037000 
#    y 0.055010 1.778810 -0.031370 
#    z 0.037000 -0.031370 1.679120 
# 
# From -- ./inp_files/107166.got.cif
#   From: 2010.05.17/outbox.cif.g08.bks.cpg/sg2_54_cif.got.tgz:107166.got - 2010.06.03 11:33:40.
