data_PCOD9013506
_publ_section_title
;
Structure prediction by ZEFSAII (Michael W. Deem and Ramdas Pophale) SiO2 
 PCOD9013506
Probable space group: P -1
;
_chemical_formula_sum "Si O2"
_cell_formula_units_Z 16
_cell_length_a 5.960697
_cell_length_b 12.238259
_cell_length_c 11.564231
_cell_angle_alpha 56.157748
_cell_angle_beta 100.255055
_cell_angle_gamma 104.066353
_cell_volume 678.703451
_symmetry_space_group_name_H-M "P -1"
_symmetry_group_IT_number 2
_symmetry_cell_setting 'triclinic'
loop_
_space_group_symop_operation_xyz
x,y,z
-x,-y,-z
loop_
_atom_site_type_symbol
_atom_site_label
_atom_site_fract_x
_atom_site_fract_y
_atom_site_fract_z
Si Si1 0.259449 0.566554 0.940158
Si Si2 0.250264 0.455836 0.629516
Si Si3 0.863036 0.945231 0.863981
Si Si4 0.510462 0.705499 0.085887
Si Si5 0.058656 0.650240 0.635077
Si Si6 0.367508 0.293067 0.533185
Si Si7 0.267958 0.892656 0.049575
Si Si8 0.388946 0.919862 0.424470
O O1 0.196780 0.619964 0.779031
O O2 0.500000 0.500000 0.000000
O O3 0.342117 0.674534 0.981375
O O4 0.000000 0.500000 0.000000
O O5 0.376325 0.409916 0.781172
O O6 0.041219 0.520160 0.625619
O O7 0.234507 0.329220 0.616035
O O8 0.410002 0.589535 0.516051
O O9 0.867574 0.074886 0.869586
O O10 0.741946 0.979303 0.717319
O O11 0.711190 0.821188 0.989947
O O12 0.117926 0.911934 0.911708
O O13 0.353291 0.753847 0.142512
O O14 0.204077 0.788723 0.519011
O O15 0.798335 0.677887 0.604879
O O16 0.435852 0.148401 0.601436
O O17 0.500000 0.000000 0.000000
O O18 0.500000 0.000000 0.500000
#
# Coordination Sequence:
#
# PCOD9013506 Si02
#       8
#     2   2   2   2   2   2   2   2
#     4  12  27  45  70 102 143 181 231 290 348 425
#     4  10  21  41  64  99 134 168 225 280 356 410
#     4  10  22  40  63  96 135 176 230 288 346 411
#     4  11  22  38  67  95 135 178 223 286 348 416
#     4  11  24  42  68  97 132 179 226 286 345 420
#     4  10  23  41  67  94 133 178 222 287 345 422
#     4   9  21  39  62  94 129 174 230 284 345 411
#     4  11  25  43  64  93 138 178 236 283 345 419
#
# _framework density 23.574359000000001
#
# number of rings (size 3 to 8) (size 9 to 14) (size 15 to 20)
#    0.000    1.500    1.250    2.625    3.500    7.500 
#    0.000    0.000    0.000    0.000    0.000    0.000 
#    0.000    0.000    0.000    0.000    0.000    0.000 
#
# Total GULP energy -89199.689454 kJ/mol
# GULP energy per Si atom -5574.980591 kJ/mol
# Density = 2.352070 g / cm^3
# Si number density = 23.574359 Si / 1000 Ang^3
#
#
#
# Elastic Constant Matrix: (Units=GPa)
#
#
# Indices 1 2 3 4 5 6 
#
# 1 104.6084 26.3739 21.6255 -9.5889 27.1787 9.6775
# 2 26.3739 100.5046 3.0157 8.3105 1.3483 4.7916
# 3 21.6255 3.0157 87.4773 6.0852 16.6910 9.4386
# 4 -9.5889 8.3105 6.0852 29.4030 10.2754 10.3795
# 5 27.1787 1.3483 16.6910 10.2754 40.9647 -0.5860
# 6 9.6775 4.7916 9.4386 10.3795 -0.5860 29.1525
#
#
#
# Elastic Compliance Matrix: (Units=1/GPa)
#
#
# Indices 1 2 3 4 5 6 
#
# 1 0.017686 -0.005262 -0.001242 0.016734 -0.015408 -0.010872
# 2 -0.005262 0.011775 0.000198 -0.007756 0.005006 0.002610
# 3 -0.001242 0.000198 0.013018 -0.000232 -0.004483 -0.003843
# 4 0.016734 -0.007756 -0.000232 0.060085 -0.026198 -0.026125
# 5 -0.015408 0.005006 -0.004483 -0.026198 0.043095 0.015937
# 6 -0.010872 0.002610 -0.003843 -0.026125 0.015937 0.048348
#
#
# Mechanical properties :
#
#
# Convention : Reuss Voigt Hill
#
# Bulk Modulus (GPa) = 33.48392 43.84673 38.66532
# Shear Modulus (GPa) = 23.08666 36.00906 29.54786
#
# Velocity S-wave (km/s) = 3.13279 3.91252 3.54417
# Velocity P-wave (km/s) = 5.22687 6.24901 5.76066
#
# Compressibility (1/GPa) = 0.02986508
#
# Stress axis : x y z
#
# Youngs Moduli (GPa) = 56.54237 84.92899 76.81712
#
# Poissons Ratio (x) = 0.44694 0.09540
# Poissons Ratio (y) = 0.29755 -0.01520
# Poissons Ratio (z) = 0.07022 -0.01680
#
# Static dielectric constant tensor:
#      x y z
#    x 1.907440 -0.048700 -0.001880 
#    y -0.048700 1.941060 0.049190 
#    z -0.001880 0.049190 1.911880 
# 
# From -- ./inp_files/363932.got.cif
#   From: 2010.05.17/outbox.cif.g08.bks.cpg/sg2_182_cif.got.tgz:363932.got - 2010.06.03 11:33:40.
