data_PCOD9013366
_publ_section_title
;
Structure prediction by ZEFSAII (Michael W. Deem and Ramdas Pophale) SiO2 
 PCOD9013366
Probable space group: P -1
;
_chemical_formula_sum "Si O2"
_cell_formula_units_Z 16
_cell_length_a 12.328375
_cell_length_b 11.870104
_cell_length_c 12.598390
_cell_angle_alpha 130.584923
_cell_angle_beta 59.671653
_cell_angle_gamma 79.596289
_cell_volume 761.305428
_symmetry_space_group_name_H-M "P -1"
_symmetry_group_IT_number 2
_symmetry_cell_setting 'triclinic'
loop_
_space_group_symop_operation_xyz
x,y,z
-x,-y,-z
loop_
_atom_site_type_symbol
_atom_site_label
_atom_site_fract_x
_atom_site_fract_y
_atom_site_fract_z
Si Si1 0.073135 0.667405 0.527235
Si Si2 0.141382 0.174607 0.667248
Si Si3 0.107045 0.754322 0.334440
Si Si4 0.318523 0.145961 0.097512
Si Si5 0.239124 0.424426 0.770533
Si Si6 0.502188 0.642699 0.228562
Si Si7 0.466515 0.752719 0.653729
Si Si8 0.347335 0.609047 0.479669
O O1 0.078510 0.757979 0.474288
O O2 0.228986 0.389107 0.266424
O O3 0.148133 0.701134 0.607468
O O4 0.859749 0.788236 0.724322
O O5 0.235373 0.250845 0.660432
O O6 0.010197 0.266841 0.683853
O O7 0.307356 0.897792 0.432858
O O8 0.981808 0.319667 0.931396
O O9 0.335393 0.547588 0.056613
O O10 0.000000 0.000000 0.500000
O O11 0.500000 0.000000 0.000000
O O12 0.386776 0.988221 0.865570
O O13 0.386480 0.340742 0.740157
O O14 0.327089 0.416115 0.615932
O O15 0.444600 0.564872 0.291553
O O16 0.329676 0.775288 0.659905
O O17 0.510187 0.626154 0.663899
#
# Coordination Sequence:
#
# PCOD9013366 Si02
#       8
#     2   2   2   2   2   2   2   2
#     4  11  26  44  66 101 131 176 229 266 333 400
#     4  10  21  41  64  92 129 171 211 280 320 393
#     4  11  26  40  63  96 133 176 220 268 325 392
#     4  11  25  45  68  97 136 173 219 284 327 391
#     4   9  21  40  64  95 126 162 221 270 331 390
#     4  10  22  42  64  96 129 171 218 265 332 390
#     4  10  22  43  70  94 131 178 212 276 339 383
#     4  10  22  44  65  98 129 171 222 270 324 403
#
# _framework density 21.016532999999999
#
# number of rings (size 3 to 8) (size 9 to 14) (size 15 to 20)
#    0.000    1.750    1.250    1.125    5.250    2.500 
#   13.500    0.000    0.000    0.000    0.000    0.000 
#    0.000    0.000    0.000    0.000    0.000    0.000 
#
# Total GULP energy -89422.167222 kJ/mol
# GULP energy per Si atom -5588.885451 kJ/mol
# Density = 2.096870 g / cm^3
# Si number density = 21.016533 Si / 1000 Ang^3
#
#
#
# Elastic Constant Matrix: (Units=GPa)
#
#
# Indices 1 2 3 4 5 6 
#
# 1 121.2585 27.8493 20.1546 3.4266 -7.9137 17.3335
# 2 27.8493 70.9845 25.1355 2.7360 -11.6573 -6.7608
# 3 20.1546 25.1355 71.8470 18.6472 -2.4110 -2.5645
# 4 3.4266 2.7360 18.6472 18.3088 -3.4196 0.0918
# 5 -7.9137 -11.6573 -2.4110 -3.4196 27.4018 2.7857
# 6 17.3335 -6.7608 -2.5645 0.0918 2.7857 20.8308
#
#
#
# Elastic Compliance Matrix: (Units=1/GPa)
#
#
# Indices 1 2 3 4 5 6 
#
# 1 0.011431 -0.004373 -0.002390 0.001491 0.002594 -0.011578
# 2 -0.004373 0.019808 -0.006708 0.005854 0.006455 0.008353
# 3 -0.002390 -0.006708 0.022773 -0.022640 -0.004705 0.003344
# 4 0.001491 0.005854 -0.022640 0.078624 0.011144 -0.003965
# 5 0.002594 0.006455 -0.004705 0.011144 0.041602 -0.006255
# 6 -0.011578 0.008353 0.003344 -0.003965 -0.006255 0.061617
#
#
# Mechanical properties :
#
#
# Convention : Reuss Voigt Hill
#
# Bulk Modulus (GPa) = 36.93953 45.59652 41.26802
# Shear Modulus (GPa) = 18.39456 26.03831 22.21644
#
# Velocity S-wave (km/s) = 2.96166 3.52368 3.25482
# Velocity P-wave (km/s) = 5.41385 6.18852 5.81410
#
# Compressibility (1/GPa) = 0.02707127
#
# Stress axis : x y z
#
# Youngs Moduli (GPa) = 87.48484 50.48392 43.91151
#
# Poissons Ratio (x) = 0.22074 0.10495
# Poissons Ratio (y) = 0.38253 0.29455
# Poissons Ratio (z) = 0.20908 0.33864
#
# Static dielectric constant tensor:
#      x y z
#    x 1.781970 0.005800 0.003250 
#    y 0.005800 1.705030 -0.009130 
#    z 0.003250 -0.009130 1.742190 
# 
# From -- ./inp_files/428875.got.cif
#   From: 2010.05.17/outbox.cif.g08.bks.cpg/sg2_215_cif.got.tgz:428875.got - 2010.06.03 11:33:40.
