data_PCOD9013550
_publ_section_title
;
Structure prediction by ZEFSAII (Michael W. Deem and Ramdas Pophale) SiO2 
 PCOD9013550
Probable space group: P -1
;
_chemical_formula_sum "Si O2"
_cell_formula_units_Z 16
_cell_length_a 9.309009
_cell_length_b 19.860414
_cell_length_c 10.424196
_cell_angle_alpha 54.218691
_cell_angle_beta 102.675152
_cell_angle_gamma 144.753955
_cell_volume 752.785330
_symmetry_space_group_name_H-M "P -1"
_symmetry_group_IT_number 2
_symmetry_cell_setting 'triclinic'
loop_
_space_group_symop_operation_xyz
x,y,z
-x,-y,-z
loop_
_atom_site_type_symbol
_atom_site_label
_atom_site_fract_x
_atom_site_fract_y
_atom_site_fract_z
Si Si1 0.315209 0.624225 0.869432
Si Si2 0.321602 0.893026 0.744787
Si Si3 0.233438 0.268543 0.511975
Si Si4 0.751744 0.072558 0.850004
Si Si5 0.698565 0.554904 0.869110
Si Si6 0.778810 0.432464 0.382798
Si Si7 0.305690 0.770237 0.257871
Si Si8 0.257120 0.011041 0.452290
O O1 0.269603 0.576064 0.766877
O O2 0.553681 0.814091 0.707867
O O3 0.412140 0.592457 0.006281
O O4 0.000000 0.500000 0.000000
O O5 0.588998 0.982582 0.616361
O O6 0.026173 0.710869 0.825120
O O7 0.440339 0.930962 0.866175
O O8 0.270957 0.967025 0.636333
O O9 0.290240 0.385100 0.324010
O O10 0.538483 0.369859 0.483002
O O11 0.017969 0.171808 0.700163
O O12 0.062783 0.134939 0.512571
O O13 0.821296 0.200283 0.767358
O O14 0.640977 0.954263 0.068711
O O15 0.500000 0.500000 0.000000
O O16 0.721500 0.307794 0.543096
O O17 0.103489 0.623076 0.277227
#
# Coordination Sequence:
#
# PCOD9013550 Si02
#       8
#     2   2   2   2   2   2   2   2
#     4  12  23  36  64  93 125 160 201 239 303 376
#     4   9  17  35  60  81 124 154 193 237 298 361
#     4  10  23  40  63  87 128 156 197 255 307 355
#     4  10  21  41  65  88 110 165 209 246 297 361
#     4  11  21  37  56  96 127 161 190 247 313 362
#     4  11  24  43  60  90 124 157 201 262 296 348
#     4  10  24  42  65  85 117 163 213 247 297 356
#     4   9  19  34  56  91 117 159 190 235 298 372
#
# _framework density 21.254398999999999
#
# number of rings (size 3 to 8) (size 9 to 14) (size 15 to 20)
#    0.000    1.750    2.500    2.250    3.500    1.500 
#    2.250    0.000    0.000    0.000    0.000    0.000 
#    0.000    0.000    0.000    0.000    0.000    0.000 
#
# Total GULP energy -89231.815045 kJ/mol
# GULP energy per Si atom -5576.988440 kJ/mol
# Density = 2.120602 g / cm^3
# Si number density = 21.254399 Si / 1000 Ang^3
#
#
#
# Elastic Constant Matrix: (Units=GPa)
#
#
# Indices 1 2 3 4 5 6 
#
# 1 64.6339 -7.6868 38.7116 -11.0929 3.1732 -5.2564
# 2 -7.6868 16.5541 -4.4256 -3.5228 8.6620 -3.1400
# 3 38.7116 -4.4256 116.9252 -9.5742 15.7680 -4.6748
# 4 -11.0929 -3.5228 -9.5742 15.2096 -12.8699 -1.8540
# 5 3.1732 8.6620 15.7680 -12.8699 53.5915 -8.0709
# 6 -5.2564 -3.1400 -4.6748 -1.8540 -8.0709 16.8770
#
#
#
# Elastic Compliance Matrix: (Units=1/GPa)
#
#
# Indices 1 2 3 4 5 6 
#
# 1 0.026599 0.015884 -0.006286 0.026397 0.006373 0.015446
# 2 0.015884 0.080999 0.001733 0.030920 -0.003792 0.022081
# 3 -0.006286 0.001733 0.011135 0.000153 -0.003154 -0.000042
# 4 0.026397 0.030920 0.000153 0.121650 0.028807 0.041157
# 5 0.006373 -0.003792 -0.003154 0.028807 0.029396 0.017628
# 6 0.015446 0.022081 -0.000042 0.041157 0.017628 0.081111
#
#
# Mechanical properties :
#
#
# Convention : Reuss Voigt Hill
#
# Bulk Modulus (GPa) = 7.07234 27.92352 17.49793
# Shear Modulus (GPa) = 13.32052 28.56988 20.94520
#
# Velocity S-wave (km/s) = 2.50615 3.67029 3.14260
# Velocity P-wave (km/s) = 3.42185 5.57922 4.62800
#
# Compressibility (1/GPa) = 0.14139587
#
# Stress axis : x y z
#
# Youngs Moduli (GPa) = 37.59507 12.34579 89.80499
#
# Poissons Ratio (x) = -0.19610 0.56448
# Poissons Ratio (y) = -0.59715 -0.15562
# Poissons Ratio (z) = 0.23631 -0.02139
#
# Static dielectric constant tensor:
#      x y z
#    x 1.789330 0.021420 0.003990 
#    y 0.021420 1.819670 0.022520 
#    z 0.003990 0.022520 1.831210 
# 
# From -- ./inp_files/186902.got.cif
#   From: 2010.05.17/outbox.cif.g08.bks.cpg/sg2_94_cif.got.tgz:186902.got - 2010.06.03 11:33:40.
