data_PCOD9013458
_publ_section_title
;
Structure prediction by ZEFSAII (Michael W. Deem and Ramdas Pophale) SiO2 
 PCOD9013458
Probable space group: P -1
;
_chemical_formula_sum "Si O2"
_cell_formula_units_Z 16
_cell_length_a 23.486872
_cell_length_b 8.859082
_cell_length_c 14.980144
_cell_angle_alpha 45.850195
_cell_angle_beta 20.250536
_cell_angle_gamma 49.424164
_cell_volume 774.045136
_symmetry_space_group_name_H-M "P -1"
_symmetry_group_IT_number 2
_symmetry_cell_setting 'triclinic'
loop_
_space_group_symop_operation_xyz
x,y,z
-x,-y,-z
loop_
_atom_site_type_symbol
_atom_site_label
_atom_site_fract_x
_atom_site_fract_y
_atom_site_fract_z
Si Si1 0.954831 0.813894 0.877917
Si Si2 0.839370 0.584852 0.794153
Si Si3 0.075333 0.224963 0.593897
Si Si4 0.504369 0.997276 0.648113
Si Si5 0.831401 0.899636 0.828441
Si Si6 0.522109 0.338907 0.329950
Si Si7 0.771022 0.391241 0.357965
Si Si8 0.178992 0.966678 0.705725
O O1 0.886633 0.832191 0.872815
O O2 0.146440 0.749140 0.628965
O O3 0.855732 0.621000 0.146318
O O4 0.942396 0.033095 0.858259
O O5 0.861733 0.742868 0.613069
O O6 0.785872 0.708065 0.909219
O O7 0.001955 0.451654 0.631028
O O8 0.709794 0.409872 0.026369
O O9 0.192049 0.138424 0.535372
O O10 0.486681 0.208067 0.526482
O O11 0.668385 0.012447 0.460144
O O12 0.515017 0.810396 0.637655
O O13 0.336293 0.971559 0.963259
O O14 0.000000 0.000000 0.500000
O O15 0.418478 0.552242 0.387432
O O16 0.815745 0.261836 0.256104
O O17 0.000000 0.000000 0.000000
#
# Coordination Sequence:
#
# PCOD9013458 Si02
#       8
#     2   2   2   2   2   2   2   2
#     4  10  21  41  64  96 127 165 218 265 318 391
#     4  11  24  40  68  91 129 178 214 267 330 389
#     4  10  23  43  62  94 133 167 220 261 329 395
#     4  11  26  42  66  99 133 168 222 277 327 381
#     4  12  24  42  68  98 133 174 221 269 323 393
#     4  11  24  42  66  95 133 171 218 276 325 393
#     4  10  23  39  67  94 132 168 214 263 339 381
#     4  11  25  42  67 101 135 170 217 278 327 388
#
# _framework density 20.670628000000001
#
# number of rings (size 3 to 8) (size 9 to 14) (size 15 to 20)
#    0.000    1.250    2.500    2.250   12.250    1.000 
#    2.250    2.500    0.000    0.000    0.000    0.000 
#    0.000    0.000    0.000    0.000    0.000    0.000 
#
# Total GULP energy -89266.842420 kJ/mol
# GULP energy per Si atom -5579.177651 kJ/mol
# Density = 2.062358 g / cm^3
# Si number density = 20.670628 Si / 1000 Ang^3
#
#
#
# Elastic Constant Matrix: (Units=GPa)
#
#
# Indices 1 2 3 4 5 6 
#
# 1 139.1755 44.0957 32.4430 15.4808 -21.8462 -1.7352
# 2 44.0957 83.2491 27.0002 15.9593 -4.3032 -4.6027
# 3 32.4430 27.0002 74.2822 12.5608 -14.8232 -4.5119
# 4 15.4808 15.9593 12.5608 39.5841 -0.8467 -5.0258
# 5 -21.8462 -4.3032 -14.8232 -0.8467 25.7629 1.6000
# 6 -1.7352 -4.6027 -4.5119 -5.0258 1.6000 30.7242
#
#
#
# Elastic Compliance Matrix: (Units=1/GPa)
#
#
# Indices 1 2 3 4 5 6 
#
# 1 0.010151 -0.004327 -0.001171 -0.001816 0.007209 -0.000919
# 2 -0.004327 0.016159 -0.004016 -0.003470 -0.003470 0.001200
# 3 -0.001171 -0.004016 0.017708 -0.003240 0.008358 0.000967
# 4 -0.001816 -0.003470 -0.003240 0.028811 -0.003272 0.003785
# 5 0.007209 -0.003470 0.008358 -0.003272 0.049174 -0.001981
# 6 -0.000919 0.001200 0.000967 0.003785 -0.001981 0.033540
#
#
# Mechanical properties :
#
#
# Convention : Reuss Voigt Hill
#
# Bulk Modulus (GPa) = 40.01683 55.97607 47.99645
# Shear Modulus (GPa) = 27.33717 32.09211 29.71464
#
# Velocity S-wave (km/s) = 3.64058 3.94451 3.79559
# Velocity P-wave (km/s) = 6.08877 6.91985 6.51757
#
# Compressibility (1/GPa) = 0.02498949
#
# Stress axis : x y z
#
# Youngs Moduli (GPa) = 98.50971 61.88499 56.47153
#
# Poissons Ratio (x) = 0.26779 0.06612
# Poissons Ratio (y) = 0.42627 0.22681
# Poissons Ratio (z) = 0.11534 0.24855
#
# Static dielectric constant tensor:
#      x y z
#    x 1.743100 -0.026870 -0.012540 
#    y -0.026870 1.756580 0.014500 
#    z -0.012540 0.014500 1.787260 
# 
# From -- ./inp_files/542641.got.cif
#   From: 2010.05.17/outbox.cif.g08.bks.cpg/sg2_272_cif.got.tgz:542641.got - 2010.06.03 11:33:40.
