data_PCOD9013214
_publ_section_title
;
Structure prediction by ZEFSAII (Michael W. Deem and Ramdas Pophale) SiO2 
 PCOD9013214
Probable space group: P -1
;
_chemical_formula_sum "Si O2"
_cell_formula_units_Z 14
_cell_length_a 9.209216
_cell_length_b 13.719974
_cell_length_c 9.138387
_cell_angle_alpha 132.201725
_cell_angle_beta 117.666236
_cell_angle_gamma 51.049944
_cell_volume 663.417787
_symmetry_space_group_name_H-M "P -1"
_symmetry_group_IT_number 2
_symmetry_cell_setting 'triclinic'
loop_
_space_group_symop_operation_xyz
x,y,z
-x,-y,-z
loop_
_atom_site_type_symbol
_atom_site_label
_atom_site_fract_x
_atom_site_fract_y
_atom_site_fract_z
Si Si1 0.582510 0.175852 0.291223
Si Si2 0.309654 0.540967 0.042911
Si Si3 0.881371 0.436955 0.297628
Si Si4 0.236127 0.129134 0.107142
Si Si5 0.819247 0.121604 0.622392
Si Si6 0.418456 0.629339 0.768752
Si Si7 0.193986 0.950941 0.130341
O O1 0.379455 0.188681 0.194792
O O2 0.643698 0.167865 0.478703
O O3 0.588157 0.309598 0.336603
O O4 0.722311 0.012273 0.120084
O O5 0.202837 0.489201 0.825106
O O6 0.500000 0.500000 0.000000
O O7 0.190302 0.719374 0.189222
O O8 0.379082 0.468879 0.161903
O O9 0.717061 0.441221 0.328446
O O10 0.000000 0.500000 0.500000
O O11 0.028226 0.264755 0.154041
O O12 0.274395 0.055834 0.211947
O O13 0.820386 0.046963 0.701613
O O14 0.000000 0.000000 0.500000
O O15 0.330759 0.781836 0.976295
O O16 0.000000 0.000000 0.000000
#
# Coordination Sequence:
#
# PCOD9013214 Si02
#       7
#     2   2   2   2   2   2   2
#     4  10  24  40  66  95 131 161 216 274 329 371
#     4  10  21  41  63  96 128 173 218 261 318 394
#     4  11  22  38  68  90 128 168 224 258 316 388
#     4  10  22  42  61  95 131 166 209 274 319 384
#     4  12  23  37  67  99 127 166 222 268 317 387
#     4  10  21  42  69  90 127 181 212 259 329 393
#     4  11  19  39  69  87 124 174 213 255 328 388
#
# _framework density 21.102841999999999
#
# number of rings (size 3 to 8) (size 9 to 14) (size 15 to 20)
#    0.000    1.429    4.286    2.571    4.000    1.143 
#    0.000    3.571    3.143    0.000    0.000    0.000 
#    0.000    0.000    0.000    0.000    0.000    0.000 
#
# Total GULP energy -78139.223779 kJ/mol
# GULP energy per Si atom -5581.373127 kJ/mol
# Density = 2.105481 g / cm^3
# Si number density = 21.102842 Si / 1000 Ang^3
#
#
#
# Elastic Constant Matrix: (Units=GPa)
#
#
# Indices 1 2 3 4 5 6 
#
# 1 72.9575 29.5697 24.1478 -12.7976 -1.9527 17.3020
# 2 29.5697 110.9003 52.5914 -20.1575 1.7786 16.0913
# 3 24.1478 52.5914 81.9683 -23.9740 -0.6225 4.1741
# 4 -12.7976 -20.1575 -23.9740 44.7921 -4.7188 -12.2932
# 5 -1.9527 1.7786 -0.6225 -4.7188 37.5360 -2.1352
# 6 17.3020 16.0913 4.1741 -12.2932 -2.1352 31.7644
#
#
#
# Elastic Compliance Matrix: (Units=1/GPa)
#
#
# Indices 1 2 3 4 5 6 
#
# 1 0.017577 -0.001803 -0.003567 0.000128 0.000495 -0.008109
# 2 -0.001803 0.014230 -0.008393 -0.000181 -0.001230 -0.005277
# 3 -0.003567 -0.008393 0.020761 0.008408 0.002003 0.006855
# 4 0.000128 -0.000181 0.008408 0.030265 0.004582 0.010938
# 5 0.000495 -0.001230 0.002003 0.004582 0.027546 0.003715
# 6 -0.008109 -0.005277 0.006855 0.010938 0.003715 0.042154
#
#
# Mechanical properties :
#
#
# Convention : Reuss Voigt Hill
#
# Bulk Modulus (GPa) = 39.93244 53.16044 46.54644
# Shear Modulus (GPa) = 26.53840 33.45295 29.99568
#
# Velocity S-wave (km/s) = 3.55008 3.98582 3.77424
# Velocity P-wave (km/s) = 5.98063 6.81382 6.41078
#
# Compressibility (1/GPa) = 0.02504230
#
# Stress axis : x y z
#
# Youngs Moduli (GPa) = 56.89301 70.27258 48.16758
#
# Poissons Ratio (x) = 0.12670 0.17182
# Poissons Ratio (y) = 0.10258 0.40425
# Poissons Ratio (z) = 0.20295 0.58977
#
# Static dielectric constant tensor:
#      x y z
#    x 1.793850 0.007130 -0.003200 
#    y 0.007130 1.793380 0.007010 
#    z -0.003200 0.007010 1.756820 
# 
# From -- ./inp_files/436229.got.cif
#   From: 2010.05.17/outbox.cif.g08.bks.cpg/sg2_219_cif.got.tgz:436229.got - 2010.06.03 11:33:40.
