data_PCOD9013093
_publ_section_title
;
Structure prediction by ZEFSAII (Michael W. Deem and Ramdas Pophale) SiO2 
 PCOD9013093
Probable space group: P -1
;
_chemical_formula_sum "Si O2"
_cell_formula_units_Z 16
_cell_length_a 13.037955
_cell_length_b 10.025403
_cell_length_c 8.939728
_cell_angle_alpha 100.088841
_cell_angle_beta 81.896995
_cell_angle_gamma 143.657700
_cell_volume 681.765954
_symmetry_space_group_name_H-M "P -1"
_symmetry_group_IT_number 2
_symmetry_cell_setting 'triclinic'
loop_
_space_group_symop_operation_xyz
x,y,z
-x,-y,-z
loop_
_atom_site_type_symbol
_atom_site_label
_atom_site_fract_x
_atom_site_fract_y
_atom_site_fract_z
Si Si1 0.612777 0.249374 0.079335
Si Si2 0.876637 0.442261 0.306252
Si Si3 0.371356 0.262347 0.139917
Si Si4 0.868832 0.938874 0.124347
Si Si5 0.613377 0.666223 0.364006
Si Si6 0.681235 0.187016 0.578131
Si Si7 0.803087 0.053056 0.620938
Si Si8 0.888997 0.555072 0.823336
O O1 0.707697 0.311127 0.226444
O O2 0.500847 0.269359 0.113171
O O3 0.774000 0.447396 0.973567
O O4 0.500000 0.000000 0.000000
O O5 0.817496 0.305389 0.441416
O O6 0.997868 0.695348 0.375473
O O7 0.993412 0.457527 0.194844
O O8 0.467037 0.494887 0.232732
O O9 0.227163 0.073900 0.256242
O O10 0.286480 0.188400 0.982505
O O11 0.779658 0.778970 0.258366
O O12 0.979240 0.187464 0.189627
O O13 0.000000 0.000000 0.000000
O O14 0.500000 0.500000 0.500000
O O15 0.710052 0.895603 0.462436
O O16 0.698765 0.084184 0.671517
O O17 0.746914 0.387970 0.688780
O O18 0.500000 0.000000 0.500000
#
# Coordination Sequence:
#
# PCOD9013093 Si02
#       8
#     2   2   2   2   2   2   2   2
#     4  12  23  39  63  95 130 169 210 258 318 382
#     4  11  21  39  63  92 127 164 207 259 315 379
#     4  11  24  43  64  92 128 166 213 265 318 382
#     4  12  25  44  67  96 129 169 216 270 323 382
#     4  10  23  44  68  92 124 168 215 265 321 381
#     4  11  22  37  60  92 126 164 210 258 315 379
#     4  10  21  41  63  89 126 167 209 263 317 374
#     4  11  23  39  62  94 127 165 209 262 321 379
#
# _framework density 23.468464999999998
#
# number of rings (size 3 to 8) (size 9 to 14) (size 15 to 20)
#    0.000    1.000    0.000    9.000    0.000    2.000 
#    0.000    8.125    0.000    1.500    0.000    0.000 
#    0.000    0.000    0.000    0.000    0.000    0.000 
#
# Total GULP energy -89237.953303 kJ/mol
# GULP energy per Si atom -5577.372081 kJ/mol
# Density = 2.341505 g / cm^3
# Si number density = 23.468465 Si / 1000 Ang^3
#
#
#
# Elastic Constant Matrix: (Units=GPa)
#
#
# Indices 1 2 3 4 5 6 
#
# 1 58.0443 21.9930 20.7352 6.4381 0.8824 16.3699
# 2 21.9930 165.5016 68.4753 15.2242 7.9918 3.3864
# 3 20.7352 68.4753 82.4611 -3.1470 -0.6952 -6.2653
# 4 6.4381 15.2242 -3.1470 76.8767 7.1845 -0.2775
# 5 0.8824 7.9918 -0.6952 7.1845 33.5118 3.2711
# 6 16.3699 3.3864 -6.2653 -0.2775 3.2711 25.8529
#
#
#
# Elastic Compliance Matrix: (Units=1/GPa)
#
#
# Indices 1 2 3 4 5 6 
#
# 1 0.025511 0.000695 -0.008494 -0.002819 0.001397 -0.018510
# 2 0.000695 0.009972 -0.008836 -0.002246 -0.001738 -0.003692
# 3 -0.008494 -0.008836 0.022643 0.003345 0.000918 0.011943
# 4 -0.002819 -0.002246 0.003345 0.014087 -0.002671 0.003379
# 5 0.001397 -0.001738 0.000918 -0.002671 0.031241 -0.004416
# 6 -0.018510 -0.003692 0.011943 0.003379 -0.004416 0.054374
#
#
# Mechanical properties :
#
#
# Convention : Reuss Voigt Hill
#
# Bulk Modulus (GPa) = 40.23291 58.71268 49.47279
# Shear Modulus (GPa) = 25.07739 40.23517 32.65628
#
# Velocity S-wave (km/s) = 3.27242 4.14507 3.73432
# Velocity P-wave (km/s) = 5.60883 6.92682 6.30237
#
# Compressibility (1/GPa) = 0.02485527
#
# Stress axis : x y z
#
# Youngs Moduli (GPa) = 39.19894 100.28268 44.16367
#
# Poissons Ratio (x) = -0.06968 0.37513
# Poissons Ratio (y) = -0.02724 0.39023
# Poissons Ratio (z) = 0.33296 0.88611
#
# Static dielectric constant tensor:
#      x y z
#    x 1.894460 -0.020020 -0.018590 
#    y -0.020020 1.944540 -0.010340 
#    z -0.018590 -0.010340 1.948950 
# 
# From -- ./inp_files/307991.got.cif
#   From: 2010.05.17/outbox.cif.g08.bks.cpg/sg2_154_cif.got.tgz:307991.got - 2010.06.03 11:33:40.
