data_PCOD9013530
_publ_section_title
;
Structure prediction by ZEFSAII (Michael W. Deem and Ramdas Pophale) SiO2 
 PCOD9013530
Probable space group: P -1
;
_chemical_formula_sum "Si O2"
_cell_formula_units_Z 16
_cell_length_a 18.443249
_cell_length_b 10.055939
_cell_length_c 16.849821
_cell_angle_alpha 37.017594
_cell_angle_beta 23.781978
_cell_angle_gamma 51.387872
_cell_volume 681.657910
_symmetry_space_group_name_H-M "P -1"
_symmetry_group_IT_number 2
_symmetry_cell_setting 'triclinic'
loop_
_space_group_symop_operation_xyz
x,y,z
-x,-y,-z
loop_
_atom_site_type_symbol
_atom_site_label
_atom_site_fract_x
_atom_site_fract_y
_atom_site_fract_z
Si Si1 0.770161 0.041879 0.660436
Si Si2 0.773549 0.284901 0.329684
Si Si3 0.485471 0.964386 0.650917
Si Si4 0.592016 0.382211 0.617357
Si Si5 0.851483 0.883093 0.821478
Si Si6 0.191266 0.757309 0.193860
Si Si7 0.565669 0.744250 0.872084
Si Si8 0.759037 0.879655 0.301654
O O1 0.625747 0.168876 0.730437
O O2 0.974694 0.194654 0.333698
O O3 0.840034 0.034751 0.682701
O O4 0.674079 0.781918 0.831405
O O5 0.669021 0.384762 0.450866
O O6 0.650759 0.218954 0.401964
O O7 0.711629 0.999497 0.557891
O O8 0.000000 0.500000 0.000000
O O9 0.630718 0.850704 0.524660
O O10 0.340932 0.987903 0.717571
O O11 0.325710 0.829557 0.945337
O O12 0.705532 0.620469 0.440182
O O13 0.365927 0.332641 0.859641
O O14 0.874260 0.040895 0.802669
O O15 0.000000 0.500000 0.500000
O O16 0.353798 0.750309 0.096206
O O17 0.500000 0.500000 0.000000
O O18 0.000000 0.000000 0.000000
#
# Coordination Sequence:
#
# PCOD9013530 Si02
#       8
#     2   2   2   2   2   2   2   2
#     4  10  23  41  68  98 142 181 234 290 348 422
#     4  10  21  43  70  99 140 181 234 290 355 425
#     4  10  24  50  68 100 148 180 241 307 350 442
#     4  11  23  43  66 100 134 176 239 290 348 427
#     4  11  22  42  66  98 135 185 228 284 359 420
#     4  11  23  44  67 100 141 184 236 289 364 433
#     4  10  21  41  65 102 140 180 234 293 345 422
#     4  11  26  46  72 100 136 187 240 297 376 422
#
# _framework density 23.472183999999999
#
# number of rings (size 3 to 8) (size 9 to 14) (size 15 to 20)
#    0.000    1.500    3.750    1.875    0.000    9.500 
#   18.000    0.000    0.000    0.000    0.000    0.000 
#    0.000    0.000    0.000    0.000    0.000    0.000 
#
# Total GULP energy -89226.430726 kJ/mol
# GULP energy per Si atom -5576.651920 kJ/mol
# Density = 2.341876 g / cm^3
# Si number density = 23.472184 Si / 1000 Ang^3
#
#
#
# Elastic Constant Matrix: (Units=GPa)
#
#
# Indices 1 2 3 4 5 6 
#
# 1 178.1802 68.2478 152.5149 34.0295 36.4686 22.3340
# 2 68.2478 147.8475 98.8957 3.8674 19.3847 29.6028
# 3 152.5149 98.8957 299.1231 14.0094 21.6599 24.9688
# 4 34.0295 3.8674 14.0094 48.4814 19.6339 -3.4339
# 5 36.4686 19.3847 21.6599 19.6339 51.9861 8.5929
# 6 22.3340 29.6028 24.9688 -3.4339 8.5929 37.7568
#
#
#
# Elastic Compliance Matrix: (Units=1/GPa)
#
#
# Indices 1 2 3 4 5 6 
#
# 1 0.013016 -0.001128 -0.005466 -0.006219 -0.003597 -0.002947
# 2 -0.001128 0.010001 -0.002224 0.000852 -0.001458 -0.005294
# 3 -0.005466 -0.002224 0.006665 0.001636 0.001195 0.000446
# 4 -0.006219 0.000852 0.001636 0.028301 -0.008385 0.006411
# 5 -0.003597 -0.001458 0.001195 -0.008385 0.025653 -0.004120
# 6 -0.002947 -0.005294 0.000446 0.006411 -0.004120 0.033605
#
#
# Mechanical properties :
#
#
# Convention : Reuss Voigt Hill
#
# Bulk Modulus (GPa) = 83.00996 140.49639 111.75317
# Shear Modulus (GPa) = 35.99927 48.01102 42.00514
#
# Velocity S-wave (km/s) = 3.92050 4.52756 4.23492
# Velocity P-wave (km/s) = 7.47902 9.34442 8.46327
#
# Compressibility (1/GPa) = 0.01204675
#
# Stress axis : x y z
#
# Youngs Moduli (GPa) = 76.82623 99.99303 150.03817
#
# Poissons Ratio (x) = 0.11276 0.82012
# Poissons Ratio (y) = 0.08664 0.33366
# Poissons Ratio (z) = 0.41994 0.22237
#
# Static dielectric constant tensor:
#      x y z
#    x 2.030610 -0.014450 0.052990 
#    y -0.014450 1.910080 -0.002600 
#    z 0.052990 -0.002600 1.891820 
# 
# From -- ./inp_files/577253.got.cif
#   From: 2010.05.17/outbox.cif.g08.bks.cpg/sg2_289_cif.got.tgz:577253.got - 2010.06.03 11:33:40.
