data_PCOD9013774
_publ_section_title
;
Structure prediction by ZEFSAII (Michael W. Deem and Ramdas Pophale) SiO2 
 PCOD9013774
Probable space group: P -1
;
_chemical_formula_sum "Si O2"
_cell_formula_units_Z 16
_cell_length_a 10.833348
_cell_length_b 12.214121
_cell_length_c 7.470343
_cell_angle_alpha 117.216283
_cell_angle_beta 91.677703
_cell_angle_gamma 103.810147
_cell_volume 842.584122
_symmetry_space_group_name_H-M "P -1"
_symmetry_group_IT_number 2
_symmetry_cell_setting 'triclinic'
loop_
_space_group_symop_operation_xyz
x,y,z
-x,-y,-z
loop_
_atom_site_type_symbol
_atom_site_label
_atom_site_fract_x
_atom_site_fract_y
_atom_site_fract_z
Si Si1 0.433569 0.370147 0.299958
Si Si2 0.703648 0.585979 0.007370
Si Si3 0.052742 0.194101 0.783992
Si Si4 0.460249 0.672413 0.090701
Si Si5 0.366742 0.094496 0.195140
Si Si6 0.440175 0.041835 0.748111
Si Si7 0.096182 0.915396 0.981451
Si Si8 0.156909 0.942422 0.609463
O O1 0.500000 0.500000 0.500000
O O2 0.386780 0.245484 0.327930
O O3 0.316298 0.382462 0.178012
O O4 0.534651 0.347650 0.139074
O O5 0.840006 0.672507 0.143230
O O6 0.588126 0.633218 0.130631
O O7 0.662705 0.433182 0.917400
O O8 0.979032 0.193434 0.968015
O O9 0.944298 0.148105 0.594826
O O10 0.124577 0.080588 0.714325
O O11 0.484009 0.822303 0.233159
O O12 0.467285 0.045823 0.277804
O O13 0.222049 0.006781 0.152133
O O14 0.395514 0.075146 0.970481
O O15 0.307154 0.973840 0.593176
O O16 0.136925 0.881396 0.762116
O O17 0.000000 0.000000 0.000000
#
# Coordination Sequence:
#
# PCOD9013774 Si02
#       8
#     2   2   2   2   2   2   2   2
#     4   9  16  29  46  73 101 123 161 204 250 298
#     4   9  16  31  46  70  99 125 166 200 250 287
#     4  10  17  30  47  71 104 127 168 211 247 300
#     4   8  16  30  48  69  97 131 157 209 245 289
#     4   9  17  29  51  77  98 133 159 208 261 287
#     4   9  15  31  53  73 102 125 170 206 246 310
#     4   9  17  31  45  72 103 126 165 207 252 300
#     4   9  17  29  48  74  95 135 162 207 259 292
#
# _framework density 18.989201000000001
#
# number of rings (size 3 to 8) (size 9 to 14) (size 15 to 20)
#    0.750    2.250    1.250    1.500    0.000    0.000 
#   11.250    0.625    0.000    0.750    3.250    3.500 
#    0.000    0.000    0.000    0.000    0.000    0.000 
#
# Total GULP energy -89116.166007 kJ/mol
# GULP energy per Si atom -5569.760375 kJ/mol
# Density = 1.894598 g / cm^3
# Si number density = 18.989201 Si / 1000 Ang^3
#
#
#
# Elastic Constant Matrix: (Units=GPa)
#
#
# Indices 1 2 3 4 5 6 
#
# 1 74.9485 46.5540 37.5980 11.9022 35.3320 13.6063
# 2 46.5540 107.7035 27.4196 14.3386 25.3606 27.4360
# 3 37.5980 27.4196 72.0218 8.5822 23.7630 10.8343
# 4 11.9022 14.3386 8.5822 13.9935 11.0557 10.0434
# 5 35.3320 25.3606 23.7630 11.0557 31.0722 1.4599
# 6 13.6063 27.4360 10.8343 10.0434 1.4599 24.1110
#
#
#
# Elastic Compliance Matrix: (Units=1/GPa)
#
#
# Indices 1 2 3 4 5 6 
#
# 1 0.041575 -0.000473 -0.002278 0.033988 -0.055704 -0.032685
# 2 -0.000473 0.018664 0.002212 0.015988 -0.020790 -0.027366
# 3 -0.002278 0.002212 0.021338 0.012465 -0.019272 -0.014846
# 4 0.033988 0.015988 0.012465 0.208561 -0.129705 -0.121996
# 5 -0.055704 -0.020790 -0.019272 -0.129705 0.168327 0.107589
# 6 -0.032685 -0.027366 -0.014846 -0.121996 0.107589 0.142034
#
#
# Mechanical properties :
#
#
# Convention : Reuss Voigt Hill
#
# Bulk Modulus (GPa) = 12.42225 53.09079 32.75652
# Shear Modulus (GPa) = 7.95661 23.37548 15.66604
#
# Velocity S-wave (km/s) = 2.04919 3.51235 2.87539
# Velocity P-wave (km/s) = 3.48638 6.66843 5.32084
#
# Compressibility (1/GPa) = 0.08050072
#
# Stress axis : x y z
#
# Youngs Moduli (GPa) = 24.05292 53.57902 46.86479
#
# Poissons Ratio (x) = 0.02534 0.10674
# Poissons Ratio (y) = 0.01137 -0.10369
# Poissons Ratio (z) = 0.05478 -0.11854
#
# Static dielectric constant tensor:
#      x y z
#    x 1.680860 0.024670 -0.035670 
#    y 0.024670 1.676240 -0.043860 
#    z -0.035670 -0.043860 1.704660 
# 
# From -- ./inp_files/254609.got.cif
#   From: 2010.05.17/outbox.cif.g08.bks.cpg/sg2_128_cif.got.tgz:254609.got - 2010.06.03 11:33:40.
