data_PCOD9013836
_publ_section_title
;
Structure prediction by ZEFSAII (Michael W. Deem and Ramdas Pophale) SiO2 
 PCOD9013836
Probable space group: P -1
;
_chemical_formula_sum "Si O2"
_cell_formula_units_Z 12
_cell_length_a 7.621706
_cell_length_b 10.898519
_cell_length_c 7.639169
_cell_angle_alpha 68.520886
_cell_angle_beta 118.351228
_cell_angle_gamma 127.534476
_cell_volume 440.140536
_symmetry_space_group_name_H-M "P -1"
_symmetry_group_IT_number 2
_symmetry_cell_setting 'triclinic'
loop_
_space_group_symop_operation_xyz
x,y,z
-x,-y,-z
loop_
_atom_site_type_symbol
_atom_site_label
_atom_site_fract_x
_atom_site_fract_y
_atom_site_fract_z
Si Si1 0.770049 0.030859 0.823018
Si Si2 0.687415 0.864415 0.232220
Si Si3 0.241071 0.679958 0.323398
Si Si4 0.750724 0.757501 0.858070
Si Si5 0.240787 0.593702 0.750389
Si Si6 0.020992 0.799948 0.625744
O O1 0.695449 0.149784 0.677478
O O2 0.727618 0.906458 0.721499
O O3 0.035830 0.150943 0.953243
O O4 0.658509 0.927186 0.999292
O O5 0.433935 0.722444 0.246246
O O6 0.867562 0.807351 0.390371
O O7 0.800004 0.024608 0.314052
O O8 0.253503 0.591875 0.544704
O O9 0.970603 0.570279 0.192796
O O10 0.503988 0.641275 0.893922
O O11 0.838708 0.717358 0.746027
O O12 0.157575 0.712926 0.695589
#
# Coordination Sequence:
#
# PCOD9013836 Si02
#       6
#     2   2   2   2   2   2
#     4  10  23  40  69  96 128 164 212 272 320 364
#     4  10  21  41  66 100 123 163 219 267 315 367
#     4  11  24  42  64  97 133 170 212 258 322 385
#     4  10  22  45  65 100 125 166 217 262 322 371
#     4  11  25  42  65  95 132 175 208 257 320 388
#     4  10  22  40  70  97 122 168 221 262 312 375
#
# _framework density 27.264021
#
# number of rings (size 3 to 8) (size 9 to 14) (size 15 to 20)
#    0.000    1.667    1.667    1.500    9.333    4.000 
#    0.000   10.000    0.000    0.000    0.000    0.000 
#    0.000    0.000    0.000    0.000    0.000    0.000 
#
# Total GULP energy -67103.647504 kJ/mol
# GULP energy per Si atom -5591.970625 kJ/mol
# Density = 2.720197 g / cm^3
# Si number density = 27.264021 Si / 1000 Ang^3
#
#
#
# Elastic Constant Matrix: (Units=GPa)
#
#
# Indices 1 2 3 4 5 6 
#
# 1 167.8014 65.6499 41.1060 -8.8350 -11.3981 49.1346
# 2 65.6499 101.2708 35.9387 -18.5669 8.7738 30.5731
# 3 41.1060 35.9387 91.5936 -16.8967 -16.8118 6.2317
# 4 -8.8350 -18.5669 -16.8967 29.4272 -1.1885 8.6038
# 5 -11.3981 8.7738 -16.8118 -1.1885 38.9329 2.8852
# 6 49.1346 30.5731 6.2317 8.6038 2.8852 57.1755
#
#
#
# Elastic Compliance Matrix: (Units=1/GPa)
#
#
# Indices 1 2 3 4 5 6 
#
# 1 0.010327 -0.004010 -0.001522 0.001912 0.003850 -0.007046
# 2 -0.004010 0.018527 -0.004347 0.009820 -0.006397 -0.007142
# 3 -0.001522 -0.004347 0.015728 0.005943 0.007459 0.000648
# 4 0.001912 0.009820 0.005943 0.048706 0.003515 -0.015048
# 5 0.003850 -0.006397 0.007459 0.003515 0.031792 -0.002834
# 6 -0.007046 -0.007142 0.000648 -0.015048 -0.002834 0.029701
#
#
# Mechanical properties :
#
#
# Convention : Reuss Voigt Hill
#
# Bulk Modulus (GPa) = 40.28385 71.78389 56.03387
# Shear Modulus (GPa) = 27.35026 39.63853 33.49440
#
# Velocity S-wave (km/s) = 3.17071 3.81711 3.50883
# Velocity P-wave (km/s) = 5.31150 6.76856 6.08381
#
# Compressibility (1/GPa) = 0.02482385
#
# Stress axis : x y z
#
# Youngs Moduli (GPa) = 96.83762 53.97454 63.58150
#
# Poissons Ratio (x) = 0.21643 0.09679
# Poissons Ratio (y) = 0.38831 0.27637
# Poissons Ratio (z) = 0.14741 0.23461
#
# Static dielectric constant tensor:
#      x y z
#    x 2.316460 0.006130 0.045160 
#    y 0.006130 2.153730 0.009200 
#    z 0.045160 0.009200 2.151700 
# 
# From -- ./inp_files/161793.got.cif
#   From: 2010.05.17/outbox.cif.g08.bks.cpg/sg2_81_cif.got.tgz:161793.got - 2010.06.03 11:33:40.
