data_PCOD9013349
_publ_section_title
;
Structure prediction by ZEFSAII (Michael W. Deem and Ramdas Pophale) SiO2 
 PCOD9013349
Probable space group: P -1
;
_chemical_formula_sum "Si O2"
_cell_formula_units_Z 16
_cell_length_a 14.739304
_cell_length_b 9.235237
_cell_length_c 19.420516
_cell_angle_alpha 112.710209
_cell_angle_beta 156.972009
_cell_angle_gamma 55.717583
_cell_volume 779.571967
_symmetry_space_group_name_H-M "P -1"
_symmetry_group_IT_number 2
_symmetry_cell_setting 'triclinic'
loop_
_space_group_symop_operation_xyz
x,y,z
-x,-y,-z
loop_
_atom_site_type_symbol
_atom_site_label
_atom_site_fract_x
_atom_site_fract_y
_atom_site_fract_z
Si Si1 0.801944 0.435299 0.670751
Si Si2 0.678642 0.299822 0.044739
Si Si3 0.224346 0.203696 0.320724
Si Si4 0.720881 0.026525 0.335919
Si Si5 0.299443 0.034824 0.928795
Si Si6 0.761065 0.969114 0.845613
Si Si7 0.282271 0.288519 0.651937
Si Si8 0.172868 0.309234 0.044050
O O1 0.500000 0.500000 0.500000
O O2 0.764663 0.611441 0.635759
O O3 0.008375 0.375773 0.869587
O O4 0.991565 0.226875 0.729520
O O5 0.742998 0.129679 0.110019
O O6 0.957487 0.255657 0.191490
O O7 0.500000 0.500000 0.000000
O O8 0.492150 0.294538 0.852710
O O9 0.500000 0.000000 0.500000
O O10 0.219407 0.160092 0.227797
O O11 0.806261 0.850196 0.411213
O O12 0.502504 0.230408 0.256693
O O13 0.000000 0.000000 0.500000
O O14 0.494862 0.035575 0.126516
O O15 0.500000 0.000000 0.000000
O O16 0.465334 0.178856 0.690678
O O17 0.825246 0.854750 0.941624
O O18 0.000000 0.000000 0.000000
O O19 0.000000 0.500000 0.500000
O O20 0.000000 0.500000 0.000000
#
# Coordination Sequence:
#
# PCOD9013349 Si02
#       8
#     2   2   2   2   2   2   2   2
#     4  11  24  42  65  95 132 170 216 269 327 389
#     4  11  24  44  66  96 132 172 218 270 326 393
#     4  12  26  42  67 100 133 172 222 274 334 396
#     4   9  21  38  61  89 123 158 205 259 306 373
#     4  10  22  43  64  88 129 171 213 261 320 385
#     4  11  23  43  67  94 132 173 215 272 329 386
#     4  10  23  41  64  93 126 166 214 261 321 384
#     4  10  21  41  64  92 124 164 216 260 318 382
#
# _framework density 20.524082
#
# number of rings (size 3 to 8) (size 9 to 14) (size 15 to 20)
#    0.000    1.500    2.500    2.250    3.500    5.000 
#    2.250    0.000    0.000    0.000    0.000    0.000 
#    0.000    0.000    0.000    0.000    0.000    0.000 
#
# Total GULP energy -89101.199320 kJ/mol
# GULP energy per Si atom -5568.824958 kJ/mol
# Density = 2.047737 g / cm^3
# Si number density = 20.524082 Si / 1000 Ang^3
#
#
#
# Elastic Constant Matrix: (Units=GPa)
#
#
# Indices 1 2 3 4 5 6 
#
# 1 98.8041 46.6055 45.4703 -16.3140 45.4466 12.8944
# 2 46.6055 133.9748 67.8371 -34.2921 39.9265 11.5433
# 3 45.4703 67.8371 115.3327 -31.6110 57.8805 19.6006
# 4 -16.3140 -34.2921 -31.6110 40.3213 -6.8720 5.6243
# 5 45.4466 39.9265 57.8805 -6.8720 55.8495 -0.4228
# 6 12.8944 11.5433 19.6006 5.6243 -0.4228 41.5515
#
#
#
# Elastic Compliance Matrix: (Units=1/GPa)
#
#
# Indices 1 2 3 4 5 6 
#
# 1 0.023264 0.000082 0.014675 0.017871 -0.032127 -0.016910
# 2 0.000082 0.012944 0.000531 0.010750 -0.008590 -0.005415
# 3 0.014675 0.000531 0.046852 0.038037 -0.056443 -0.032525
# 4 0.017871 0.010750 0.038037 0.066875 -0.053692 -0.036073
# 5 -0.032127 -0.008590 -0.056443 -0.053692 0.102436 0.047291
# 6 -0.016910 -0.005415 -0.032525 -0.036073 0.047291 0.051525
#
#
# Mechanical properties :
#
#
# Convention : Reuss Voigt Hill
#
# Bulk Modulus (GPa) = 8.79997 74.21527 41.50762
# Shear Modulus (GPa) = 16.06695 40.09103 28.07899
#
# Velocity S-wave (km/s) = 2.80095 4.42448 3.70280
# Velocity P-wave (km/s) = 3.84153 7.89557 6.20876
#
# Compressibility (1/GPa) = 0.11363671
#
# Stress axis : x y z
#
# Youngs Moduli (GPa) = 42.98538 77.25345 21.34397
#
# Poissons Ratio (x) = -0.00636 -0.31322
# Poissons Ratio (y) = -0.00354 -0.01134
# Poissons Ratio (z) = -0.63081 -0.04104
#
# Static dielectric constant tensor:
#      x y z
#    x 1.842590 -0.156260 -0.021200 
#    y -0.156260 1.884330 -0.016090 
#    z -0.021200 -0.016090 1.712980 
# 
# From -- ./inp_files/298726.got.cif
#   From: 2010.05.17/outbox.cif.g08.bks.cpg/sg2_150_cif.got.tgz:298726.got - 2010.06.03 11:33:40.
