data_PCOD9013092
_publ_section_title
;
Structure prediction by ZEFSAII (Michael W. Deem and Ramdas Pophale) SiO2 
 PCOD9013092
Probable space group: P -1
;
_chemical_formula_sum "Si O2"
_cell_formula_units_Z 16
_cell_length_a 15.705892
_cell_length_b 13.936663
_cell_length_c 6.809480
_cell_angle_alpha 61.213560
_cell_angle_beta 84.077999
_cell_angle_gamma 43.949981
_cell_volume 830.797565
_symmetry_space_group_name_H-M "P -1"
_symmetry_group_IT_number 2
_symmetry_cell_setting 'triclinic'
loop_
_space_group_symop_operation_xyz
x,y,z
-x,-y,-z
loop_
_atom_site_type_symbol
_atom_site_label
_atom_site_fract_x
_atom_site_fract_y
_atom_site_fract_z
Si Si1 0.172717 0.336603 0.413422
Si Si2 0.316593 0.831213 0.806632
Si Si3 0.929168 0.727821 0.168727
Si Si4 0.282690 0.078332 0.315959
Si Si5 0.443818 0.153775 0.728905
Si Si6 0.900738 0.000417 0.976005
Si Si7 0.468287 0.359068 0.725801
Si Si8 0.673165 0.291058 0.469317
O O1 0.115658 0.294707 0.605095
O O2 0.220472 0.240073 0.291513
O O3 0.303304 0.258199 0.564875
O O4 0.053947 0.541496 0.227680
O O5 0.342202 0.713489 0.753548
O O6 0.271962 0.981488 0.548165
O O7 0.205073 0.904453 0.915238
O O8 0.444206 0.735024 0.004280
O O9 0.801704 0.853741 0.929666
O O10 0.964959 0.817654 0.118524
O O11 0.438413 0.941644 0.362819
O O12 0.428364 0.279871 0.734630
O O13 0.500000 0.000000 0.000000
O O14 0.816092 0.111202 0.691734
O O15 0.000000 0.000000 0.000000
O O16 0.562864 0.323954 0.573802
O O17 0.352467 0.559849 0.602733
#
# Coordination Sequence:
#
# PCOD9013092 Si02
#       8
#     2   2   2   2   2   2   2   2
#     4  11  25  40  67  93 130 169 210 264 311 373
#     4  11  20  40  67  90 122 168 208 253 318 380
#     4  11  23  45  63  93 129 170 211 256 322 376
#     4  12  21  43  68  92 127 169 215 253 315 383
#     4  12  23  41  65  97 131 163 212 264 314 370
#     4  11  24  41  66  90 123 164 210 261 313 373
#     4  10  22  38  62  94 126 159 205 257 317 367
#     4  10  21  41  63  89 125 165 204 256 314 377
#
# _framework density 19.258603000000001
#
# number of rings (size 3 to 8) (size 9 to 14) (size 15 to 20)
#    0.000    1.000    5.000    2.625    1.750    0.500 
#    0.000    1.250    0.000    0.000    0.000    0.000 
#    0.000    0.000    0.000    0.000    0.000    0.000 
#
# Total GULP energy -89430.529150 kJ/mol
# GULP energy per Si atom -5589.408072 kJ/mol
# Density = 1.921477 g / cm^3
# Si number density = 19.258603 Si / 1000 Ang^3
#
#
#
# Elastic Constant Matrix: (Units=GPa)
#
#
# Indices 1 2 3 4 5 6 
#
# 1 91.5538 31.2322 0.2274 -10.9374 -3.6685 21.4019
# 2 31.2322 104.2177 3.2843 -5.0259 -4.7329 27.7457
# 3 0.2274 3.2843 40.6971 -2.3060 -6.6580 5.2082
# 4 -10.9374 -5.0259 -2.3060 34.2610 3.4681 1.5500
# 5 -3.6685 -4.7329 -6.6580 3.4681 13.7493 -5.8336
# 6 21.4019 27.7457 5.2082 1.5500 -5.8336 38.2476
#
#
#
# Elastic Compliance Matrix: (Units=1/GPa)
#
#
# Indices 1 2 3 4 5 6 
#
# 1 0.013703 -0.002230 0.001110 0.004458 -0.000434 -0.006448
# 2 -0.002230 0.012417 0.000101 0.001467 0.000037 -0.007827
# 3 0.001110 0.000101 0.026911 0.001082 0.011998 -0.002573
# 4 0.004458 0.001467 0.001082 0.032049 -0.008542 -0.006307
# 5 -0.000434 0.000037 0.011998 -0.008542 0.085683 0.011997
# 6 -0.006448 -0.007827 -0.002573 -0.006307 0.011997 0.037867
#
#
# Mechanical properties :
#
#
# Convention : Reuss Voigt Hill
#
# Bulk Modulus (GPa) = 19.61009 33.99517 26.80263
# Shear Modulus (GPa) = 21.96225 30.69988 26.33107
#
# Velocity S-wave (km/s) = 3.38062 3.99693 3.70163
# Velocity P-wave (km/s) = 5.04408 6.24427 5.67599
#
# Compressibility (1/GPa) = 0.05099416
#
# Stress axis : x y z
#
# Youngs Moduli (GPa) = 72.97744 80.53781 37.15970
#
# Poissons Ratio (x) = 0.17956 -0.04125
# Poissons Ratio (y) = 0.16270 -0.00377
# Poissons Ratio (z) = -0.08102 -0.00816
#
# Static dielectric constant tensor:
#      x y z
#    x 1.648440 0.009950 -0.004680 
#    y 0.009950 1.685020 -0.002990 
#    z -0.004680 -0.002990 1.657530 
# 
# From -- ./inp_files/69365.got.cif
#   From: 2010.05.17/outbox.cif.g08.bks.cpg/sg2_35_cif.got.tgz:69365.got - 2010.06.03 11:33:40.
