data_PCOD9013020
_publ_section_title
;
Structure prediction by ZEFSAII (Michael W. Deem and Ramdas Pophale) SiO2 
 PCOD9013020
Probable space group: P -1
;
_chemical_formula_sum "Si O2"
_cell_formula_units_Z 15
_cell_length_a 6.653867
_cell_length_b 5.671048
_cell_length_c 15.683553
_cell_angle_alpha 91.646373
_cell_angle_beta 71.947074
_cell_angle_gamma 107.446376
_cell_volume 535.445399
_symmetry_space_group_name_H-M "P -1"
_symmetry_group_IT_number 2
_symmetry_cell_setting 'triclinic'
loop_
_space_group_symop_operation_xyz
x,y,z
-x,-y,-z
loop_
_atom_site_type_symbol
_atom_site_label
_atom_site_fract_x
_atom_site_fract_y
_atom_site_fract_z
Si Si1 0.674183 0.794677 0.601005
Si Si2 0.944147 0.095131 0.720504
Si Si3 0.146986 0.459278 0.556694
Si Si4 0.162946 0.630679 0.864813
Si Si5 0.459158 0.863199 0.136132
Si Si6 0.384822 0.336632 0.722593
Si Si7 0.189884 0.251745 0.005440
Si Si8 0.500000 0.000000 0.500000
O O1 0.768696 0.769840 0.492313
O O2 0.535651 0.512061 0.634736
O O3 0.580229 0.019385 0.592340
O O4 0.823978 0.882172 0.666100
O O5 0.781630 0.102037 0.821117
O O6 0.004990 0.341580 0.655876
O O7 0.185602 0.093065 0.720147
O O8 0.328846 0.723643 0.544416
O O9 0.000000 0.500000 0.500000
O O10 0.237906 0.512641 0.773079
O O11 0.174817 0.444082 0.936955
O O12 0.355648 0.879801 0.863521
O O13 0.917811 0.663595 0.896470
O O14 0.480788 0.698311 0.212921
O O15 0.563807 0.775585 0.036774
O O16 0.000000 0.000000 0.000000
#
# Coordination Sequence:
#
# PCOD9013020 Si02
#       8
#     2   2   2   2   2   2   2   1
#     4  12  26  45  64  96 131 174 225 280 335 398
#     4  12  25  43  64  97 132 171 223 274 331 401
#     4  12  26  44  66  94 124 172 226 274 336 399
#     4   9  17  38  64  97 131 174 215 263 329 385
#     4  10  21  41  62  96 134 171 216 273 327 386
#     4  11  24  41  64  94 134 172 219 273 332 391
#     4   8  16  33  69  96 129 177 212 260 327 386
#     4  12  26  44  72  88 130 174 220 286 332 398
#
# _framework density 28.014060000000001
#
# number of rings (size 3 to 8) (size 9 to 14) (size 15 to 20)
#    0.000    1.333    4.000    1.600    0.000    0.000 
#    4.800    0.667    0.000   27.200    0.000    0.000 
#    0.000    0.000    0.000    0.000    0.000    0.000 
#
# Total GULP energy -83676.147141 kJ/mol
# GULP energy per Si atom -5578.409809 kJ/mol
# Density = 2.795030 g / cm^3
# Si number density = 28.014060 Si / 1000 Ang^3
#
#
#
# Elastic Constant Matrix: (Units=GPa)
#
#
# Indices 1 2 3 4 5 6 
#
# 1 82.0057 10.4553 10.0359 0.5657 -21.0712 3.7415
# 2 10.4553 120.6787 30.4761 -22.8779 -12.1255 12.2171
# 3 10.0359 30.4761 73.3686 -2.0244 -36.0566 -7.1539
# 4 0.5657 -22.8779 -2.0244 45.5567 5.4376 6.8265
# 5 -21.0712 -12.1255 -36.0566 5.4376 53.8178 -2.6398
# 6 3.7415 12.2171 -7.1539 6.8265 -2.6398 28.7039
#
#
#
# Elastic Compliance Matrix: (Units=1/GPa)
#
#
# Indices 1 2 3 4 5 6 
#
# 1 0.013812 -0.001319 0.001829 -0.001556 0.006502 0.000185
# 2 -0.001319 0.012307 -0.007617 0.007720 -0.004077 -0.009176
# 3 0.001829 -0.007617 0.026488 -0.006755 0.018060 0.012873
# 4 -0.001556 0.007720 -0.006755 0.028175 -0.006836 -0.012096
# 5 0.006502 -0.004077 0.018060 -0.006836 0.033494 0.010095
# 6 0.000185 -0.009176 0.012873 -0.012096 0.010095 0.045733
#
#
# Mechanical properties :
#
#
# Convention : Reuss Voigt Hill
#
# Bulk Modulus (GPa) = 26.04611 41.99861 34.02236
# Shear Modulus (GPa) = 26.73506 40.62140 33.67823
#
# Velocity S-wave (km/s) = 3.09260 3.81207 3.47102
# Velocity P-wave (km/s) = 4.69786 5.86518 5.31367
#
# Compressibility (1/GPa) = 0.03839345
#
# Stress axis : x y z
#
# Youngs Moduli (GPa) = 72.40269 81.25393 37.75300
#
# Poissons Ratio (x) = 0.10718 -0.06906
# Poissons Ratio (y) = 0.09550 0.28756
# Poissons Ratio (z) = -0.13245 0.61890
#
# Static dielectric constant tensor:
#      x y z
#    x 2.292350 0.252530 0.022470 
#    y 0.252530 1.982750 -0.028820 
#    z 0.022470 -0.028820 2.094850 
# 
# From -- ./inp_files/552780.got.cif
#   From: 2010.05.17/outbox.cif.g08.bks.cpg/sg2_277_cif.got.tgz:552780.got - 2010.06.03 11:33:40.
