data_PCOD9013515
_publ_section_title
;
Structure prediction by ZEFSAII (Michael W. Deem and Ramdas Pophale) SiO2 
 PCOD9013515
Probable space group: P -1
;
_chemical_formula_sum "Si O2"
_cell_formula_units_Z 16
_cell_length_a 10.403390
_cell_length_b 5.483611
_cell_length_c 12.438490
_cell_angle_alpha 93.043448
_cell_angle_beta 64.962548
_cell_angle_gamma 85.540592
_cell_volume 638.055407
_symmetry_space_group_name_H-M "P -1"
_symmetry_group_IT_number 2
_symmetry_cell_setting 'triclinic'
loop_
_space_group_symop_operation_xyz
x,y,z
-x,-y,-z
loop_
_atom_site_type_symbol
_atom_site_label
_atom_site_fract_x
_atom_site_fract_y
_atom_site_fract_z
Si Si1 0.179891 0.115565 0.100478
Si Si2 0.119460 0.714297 0.389114
Si Si3 0.351456 0.347310 0.374855
Si Si4 0.060299 0.899803 0.648350
Si Si5 0.601776 0.597565 0.237724
Si Si6 0.613245 0.065088 0.796293
Si Si7 0.148195 0.598536 0.987062
Si Si8 0.663526 0.917492 0.411602
O O1 0.322412 0.011341 0.113403
O O2 0.136898 0.875618 0.044818
O O3 0.046197 0.186646 0.229214
O O4 0.203685 0.370579 0.040862
O O5 0.215251 0.456606 0.355989
O O6 0.247081 0.880217 0.320822
O O7 0.001988 0.813259 0.346451
O O8 0.057994 0.768953 0.530723
O O9 0.473609 0.522963 0.356680
O O10 0.296456 0.255919 0.503937
O O11 0.437492 0.154284 0.259857
O O12 0.224792 0.882950 0.622021
O O13 0.509265 0.712993 0.171279
O O14 0.672719 0.791841 0.290047
O O15 0.731404 0.409078 0.147784
O O16 0.000000 0.500000 0.000000
O O17 0.500000 0.000000 0.500000
#
# Coordination Sequence:
#
# PCOD9013515 Si02
#       8
#     2   2   2   2   2   2   2   2
#     4  11  28  47  77 104 142 187 245 294 348 414
#     4   9  20  39  62 101 138 174 226 282 359 428
#     4  11  22  41  70 100 142 176 228 291 351 438
#     4  10  21  41  65 100 140 181 227 286 358 418
#     4  11  26  43  70  97 140 188 235 291 360 408
#     4  10  22  45  68 106 140 175 227 299 350 429
#     4  12  29  53  73 105 141 188 247 296 343 417
#     4  12  22  40  66 101 142 182 225 283 354 436
#
# _framework density 25.07619
#
# number of rings (size 3 to 8) (size 9 to 14) (size 15 to 20)
#    0.000    1.250    2.500    2.250    7.000    4.500 
#    0.000    0.000    0.000    0.000    0.000    0.000 
#    0.000    0.000    0.000    0.000    0.000    0.000 
#
# Total GULP energy -89363.018658 kJ/mol
# GULP energy per Si atom -5585.188666 kJ/mol
# Density = 2.501912 g / cm^3
# Si number density = 25.076190 Si / 1000 Ang^3
#
#
#
# Elastic Constant Matrix: (Units=GPa)
#
#
# Indices 1 2 3 4 5 6 
#
# 1 81.3012 -7.5975 14.2615 -4.2181 -15.3386 9.3943
# 2 -7.5975 57.5000 4.2468 -3.5751 -0.3379 -1.1635
# 3 14.2615 4.2468 71.1859 -1.5068 -21.4631 -2.2033
# 4 -4.2181 -3.5751 -1.5068 30.5981 -1.3762 -0.0343
# 5 -15.3386 -0.3379 -21.4631 -1.3762 42.6978 1.6232
# 6 9.3943 -1.1635 -2.2033 -0.0343 1.6232 30.7289
#
#
#
# Elastic Compliance Matrix: (Units=1/GPa)
#
#
# Indices 1 2 3 4 5 6 
#
# 1 0.014314 0.002096 -0.001716 0.002333 0.004548 -0.004657
# 2 0.002096 0.017913 -0.001353 0.002328 0.000292 -0.000072
# 3 -0.001716 -0.001353 0.016893 0.000791 0.007841 0.001271
# 4 0.002333 0.002328 0.000791 0.033420 0.002356 -0.000655
# 5 0.004548 0.000292 0.007841 0.002356 0.029164 -0.002355
# 6 -0.004657 -0.000072 0.001271 -0.000655 -0.002355 0.034179
#
#
# Mechanical properties :
#
#
# Convention : Reuss Voigt Hill
#
# Bulk Modulus (GPa) = 21.19899 25.75653 23.47776
# Shear Modulus (GPa) = 30.57097 34.07671 32.32384
#
# Velocity S-wave (km/s) = 3.49538 3.69036 3.59419
# Velocity P-wave (km/s) = 4.97619 5.33404 5.15822
#
# Compressibility (1/GPa) = 0.04717205
#
# Stress axis : x y z
#
# Youngs Moduli (GPa) = 69.86116 55.82485 59.19733
#
# Poissons Ratio (x) = -0.11699 0.10159
# Poissons Ratio (y) = -0.14640 0.08012
# Poissons Ratio (z) = 0.11989 0.07555
#
# Static dielectric constant tensor:
#      x y z
#    x 2.000510 -0.042340 0.052640 
#    y -0.042340 2.089520 -0.031750 
#    z 0.052640 -0.031750 1.979800 
# 
# From -- ./inp_files/101041.got.cif
#   From: 2010.05.17/outbox.cif.g08.bks.cpg/sg2_51_cif.got.tgz:101041.got - 2010.06.03 11:33:40.
