data_PCOD9013863
_publ_section_title
;
Structure prediction by ZEFSAII (Michael W. Deem and Ramdas Pophale) SiO2 
 PCOD9013863
Probable space group: P -1
;
_chemical_formula_sum "Si O2"
_cell_formula_units_Z 16
_cell_length_a 12.024526
_cell_length_b 18.790383
_cell_length_c 7.883916
_cell_angle_alpha 80.794674
_cell_angle_beta 126.172609
_cell_angle_gamma 140.474030
_cell_volume 748.897431
_symmetry_space_group_name_H-M "P -1"
_symmetry_group_IT_number 2
_symmetry_cell_setting 'triclinic'
loop_
_space_group_symop_operation_xyz
x,y,z
-x,-y,-z
loop_
_atom_site_type_symbol
_atom_site_label
_atom_site_fract_x
_atom_site_fract_y
_atom_site_fract_z
Si Si1 0.181577 0.981441 0.721643
Si Si2 0.466534 0.090697 0.573358
Si Si3 0.449718 0.408923 0.373431
Si Si4 0.260186 0.575122 0.150604
Si Si5 0.352942 0.213919 0.838929
Si Si6 0.247881 0.530683 0.643315
Si Si7 0.838606 0.118193 0.919602
Si Si8 0.129425 0.634783 0.357416
O O1 0.885152 0.847978 0.434611
O O2 0.351128 0.049886 0.674425
O O3 0.235482 0.083170 0.821007
O O4 0.217150 0.941014 0.922163
O O5 0.676731 0.119869 0.761637
O O6 0.620044 0.224337 0.567891
O O7 0.252694 0.971505 0.286971
O O8 0.500000 0.500000 0.500000
O O9 0.550297 0.382689 0.572619
O O10 0.629430 0.481588 0.341284
O O11 0.145222 0.267351 0.119448
O O12 0.433681 0.704580 0.145630
O O13 0.000000 0.500000 0.000000
O O14 0.122743 0.456652 0.947457
O O15 0.517347 0.330403 0.083387
O O16 0.163312 0.564105 0.447283
O O17 0.978735 0.387611 0.549159
#
# Coordination Sequence:
#
# PCOD9013863 Si02
#       8
#     2   2   2   2   2   2   2   2
#     4  11  22  42  67 100 136 180 225 286 340 408
#     4  11  24  44  70  98 135 189 228 275 347 411
#     4  12  25  44  66 101 134 180 226 280 353 407
#     4  11  20  39  65  93 138 171 223 280 329 409
#     4  10  22  38  65 101 131 170 228 281 344 395
#     4  10  22  41  67  99 138 174 222 295 338 401
#     4  11  25  46  64  98 142 177 234 278 340 419
#     4  10  21  41  66 103 130 174 233 278 340 407
#
# _framework density 21.364742
#
# number of rings (size 3 to 8) (size 9 to 14) (size 15 to 20)
#    0.000    1.250    2.500    3.375    0.000    0.000 
#    9.000    6.250    0.000    0.000    0.000    0.000 
#    0.000    0.000    0.000    0.000    0.000    0.000 
#
# Total GULP energy -89139.327346 kJ/mol
# GULP energy per Si atom -5571.207959 kJ/mol
# Density = 2.131611 g / cm^3
# Si number density = 21.364742 Si / 1000 Ang^3
#
#
#
# Elastic Constant Matrix: (Units=GPa)
#
#
# Indices 1 2 3 4 5 6 
#
# 1 122.1065 22.8772 17.3612 3.6398 1.0961 28.2723
# 2 22.8772 58.9306 7.6312 -5.2823 5.2576 24.0976
# 3 17.3612 7.6312 103.3167 0.6997 10.3877 6.4751
# 4 3.6398 -5.2823 0.6997 28.9650 6.8382 3.1887
# 5 1.0961 5.2576 10.3877 6.8382 23.8344 3.9759
# 6 28.2723 24.0976 6.4751 3.1887 3.9759 26.1137
#
#
#
# Elastic Compliance Matrix: (Units=1/GPa)
#
#
# Indices 1 2 3 4 5 6 
#
# 1 0.011187 0.000883 -0.001348 -0.000293 0.002111 -0.012879
# 2 0.000883 0.029664 -0.000153 0.009521 -0.004448 -0.028777
# 3 -0.001348 -0.000153 0.010404 0.001036 -0.004670 -0.000394
# 4 -0.000293 0.009521 0.001036 0.040446 -0.012172 -0.011811
# 5 0.002111 -0.004448 -0.004670 -0.012172 0.048864 -0.002976
# 6 -0.012879 -0.028777 -0.000394 -0.011811 -0.002976 0.080786
#
#
# Mechanical properties :
#
#
# Convention : Reuss Voigt Hill
#
# Bulk Modulus (GPa) = 19.99233 42.23255 31.11244
# Shear Modulus (GPa) = 20.89766 31.54824 26.22295
#
# Velocity S-wave (km/s) = 3.13091 3.84689 3.50722
# Velocity P-wave (km/s) = 4.73794 6.28822 5.56731
#
# Compressibility (1/GPa) = 0.05001918
#
# Stress axis : x y z
#
# Youngs Moduli (GPa) = 89.38582 33.71111 96.11612
#
# Poissons Ratio (x) = -0.02978 0.12959
# Poissons Ratio (y) = -0.07896 0.01472
# Poissons Ratio (z) = 0.12051 0.00516
#
# Static dielectric constant tensor:
#      x y z
#    x 1.802260 0.027570 -0.058750 
#    y 0.027570 1.810340 -0.017160 
#    z -0.058750 -0.017160 1.792870 
# 
# From -- ./inp_files/279436.got.cif
#   From: 2010.05.17/outbox.cif.g08.bks.cpg/sg2_140_cif.got.tgz:279436.got - 2010.06.03 11:33:40.
