data_PCOD9013567
_publ_section_title
;
Structure prediction by ZEFSAII (Michael W. Deem and Ramdas Pophale) SiO2 
 PCOD9013567
Probable space group: P -1
;
_chemical_formula_sum "Si O2"
_cell_formula_units_Z 15
_cell_length_a 20.617792
_cell_length_b 9.172510
_cell_length_c 12.390727
_cell_angle_alpha 69.021299
_cell_angle_beta 32.348154
_cell_angle_gamma 44.483121
_cell_volume 665.583872
_symmetry_space_group_name_H-M "P -1"
_symmetry_group_IT_number 2
_symmetry_cell_setting 'triclinic'
loop_
_space_group_symop_operation_xyz
x,y,z
-x,-y,-z
loop_
_atom_site_type_symbol
_atom_site_label
_atom_site_fract_x
_atom_site_fract_y
_atom_site_fract_z
Si Si1 0.350626 0.090429 0.090894
Si Si2 0.000000 0.500000 0.000000
Si Si3 0.499129 0.638765 0.876057
Si Si4 0.268936 0.889364 0.561065
Si Si5 0.723867 0.292449 0.004857
Si Si6 0.972340 0.328895 0.688978
Si Si7 0.774953 0.405098 0.343695
Si Si8 0.337857 0.914348 0.699112
O O1 0.238428 0.340966 0.108387
O O2 0.152432 0.211229 0.391498
O O3 0.500000 0.000000 0.000000
O O4 0.473892 0.831260 0.917712
O O5 0.928729 0.389038 0.126472
O O6 0.769785 0.806126 0.199894
O O7 0.300158 0.798428 0.037966
O O8 0.695624 0.452165 0.565702
O O9 0.500000 0.500000 0.000000
O O10 0.491877 0.624700 0.252843
O O11 0.167112 0.825209 0.724725
O O12 0.336659 0.888460 0.579567
O O13 0.093595 0.182008 0.671101
O O14 0.755922 0.145246 0.099973
O O15 0.901355 0.235952 0.768798
O O16 0.569494 0.667552 0.492162
#
# Coordination Sequence:
#
# PCOD9013567 Si02
#       8
#     2   1   2   2   2   2   2   2
#     4  11  24  43  61  92 131 162 204 260 320 382
#     4  12  24  38  60  92 132 164 212 264 312 384
#     4  10  21  42  68  88 123 169 208 260 315 370
#     4  10  21  41  65  89 122 165 213 260 311 377
#     4  10  22  42  64  90 122 164 216 262 313 377
#     4  11  23  38  64  93 121 160 210 261 315 378
#     4  10  23  42  63  93 128 169 214 261 321 378
#     4  10  23  41  63  90 127 169 210 264 318 371
#
# _framework density 22.536604000000001
#
# number of rings (size 3 to 8) (size 9 to 14) (size 15 to 20)
#    0.000    1.867    0.000    6.000    0.000    8.000 
#    0.000    9.333    0.000    0.000    0.000    0.000 
#    0.000    0.000    0.000    0.000    0.000    0.000 
#
# Total GULP energy -83526.610998 kJ/mol
# GULP energy per Si atom -5568.440733 kJ/mol
# Density = 2.248531 g / cm^3
# Si number density = 22.536604 Si / 1000 Ang^3
#
#
#
# Elastic Constant Matrix: (Units=GPa)
#
#
# Indices 1 2 3 4 5 6 
#
# 1 70.1142 32.5087 29.2656 -8.1001 -9.7344 -15.2678
# 2 32.5087 124.5819 20.6450 19.8926 -7.4944 -12.6884
# 3 29.2656 20.6450 56.5962 -8.7623 -9.9526 10.8804
# 4 -8.1001 19.8926 -8.7623 39.1643 13.2820 -18.3770
# 5 -9.7344 -7.4944 -9.9526 13.2820 32.0097 -6.5069
# 6 -15.2678 -12.6884 10.8804 -18.3770 -6.5069 36.7682
#
#
#
# Elastic Compliance Matrix: (Units=1/GPa)
#
#
# Indices 1 2 3 4 5 6 
#
# 1 0.030609 -0.005515 -0.015651 0.016421 0.001186 0.023856
# 2 -0.005515 0.011307 -0.001669 -0.009531 0.004010 -0.001948
# 3 -0.015651 -0.001669 0.029461 -0.005014 0.002459 -0.017864
# 4 0.016421 -0.009531 -0.005014 0.050439 -0.014089 0.027730
# 5 0.001186 0.004010 0.002459 -0.014089 0.039369 0.001074
# 6 0.023856 -0.001948 -0.017864 0.027730 0.001074 0.055767
#
#
# Mechanical properties :
#
#
# Convention : Reuss Voigt Hill
#
# Bulk Modulus (GPa) = 38.89864 46.23677 42.56770
# Shear Modulus (GPa) = 18.43718 32.84665 25.64191
#
# Velocity S-wave (km/s) = 2.86335 3.82184 3.37677
# Velocity P-wave (km/s) = 5.31313 6.32741 5.84232
#
# Compressibility (1/GPa) = 0.02570784
#
# Stress axis : x y z
#
# Youngs Moduli (GPa) = 32.67044 88.43987 33.94269
#
# Poissons Ratio (x) = 0.48770 0.53124
# Poissons Ratio (y) = 0.18016 0.05665
# Poissons Ratio (z) = 0.51133 0.14760
#
# Static dielectric constant tensor:
#      x y z
#    x 1.811920 -0.014890 0.034570 
#    y -0.014890 1.843840 -0.002150 
#    z 0.034570 -0.002150 1.944190 
# 
# From -- ./inp_files/461209.got.cif
#   From: 2010.05.17/outbox.cif.g08.bks.cpg/sg2_231_cif.got.tgz:461209.got - 2010.06.03 11:33:40.
