data_PCOD9013211
_publ_section_title
;
Structure prediction by ZEFSAII (Michael W. Deem and Ramdas Pophale) SiO2 
 PCOD9013211
Probable space group: P -1
;
_chemical_formula_sum "Si O2"
_cell_formula_units_Z 13
_cell_length_a 5.053625
_cell_length_b 19.475796
_cell_length_c 6.637943
_cell_angle_alpha 119.812415
_cell_angle_beta 105.313676
_cell_angle_gamma 92.235213
_cell_volume 535.297621
_symmetry_space_group_name_H-M "P -1"
_symmetry_group_IT_number 2
_symmetry_cell_setting 'triclinic'
loop_
_space_group_symop_operation_xyz
x,y,z
-x,-y,-z
loop_
_atom_site_type_symbol
_atom_site_label
_atom_site_fract_x
_atom_site_fract_y
_atom_site_fract_z
Si Si1 0.087183 0.737513 0.781023
Si Si2 0.575675 0.876234 0.481312
Si Si3 0.877835 0.570728 0.677853
Si Si4 0.000000 0.000000 0.000000
Si Si5 0.524334 0.279916 0.524410
Si Si6 0.977289 0.104838 0.753527
Si Si7 0.377288 0.540769 0.220131
O O1 0.350932 0.747530 0.699489
O O2 0.063883 0.658218 0.799603
O O3 0.806611 0.721777 0.564560
O O4 0.068653 0.815681 0.020586
O O5 0.450782 0.784857 0.394984
O O6 0.760036 0.877491 0.318433
O O7 0.687167 0.080695 0.535754
O O8 0.772845 0.919315 0.762097
O O9 0.590638 0.568130 0.491850
O O10 0.834036 0.535729 0.841221
O O11 0.000000 0.500000 0.500000
O O12 0.004619 0.961958 0.174162
O O13 0.681440 0.372199 0.724384
O O14 0.500000 0.500000 0.000000
#
# Coordination Sequence:
#
# PCOD9013211 Si02
#       7
#     2   2   2   1   2   2   2
#     4  11  23  45  72  98 148 193 234 299 362 412
#     4  12  28  48  77 112 144 190 244 292 369 441
#     4  10  21  41  63  95 139 185 237 287 347 414
#     4  12  28  54  80 104 158 178 242 308 368 426
#     4  11  23  46  69 102 147 190 235 298 363 419
#     4  12  28  48  78 111 140 195 243 294 367 443
#     4  10  23  39  65  98 138 188 239 291 347 411
#
# _framework density 24.285556
#
# number of rings (size 3 to 8) (size 9 to 14) (size 15 to 20)
#    0.000    0.923    3.077    2.769    2.154    3.077 
#    0.000    0.000    0.000    0.000    0.000    0.000 
#    0.000    0.000    0.000    0.000    0.000    0.000 
#
# Total GULP energy -72487.967155 kJ/mol
# GULP energy per Si atom -5575.997473 kJ/mol
# Density = 2.423028 g / cm^3
# Si number density = 24.285556 Si / 1000 Ang^3
#
#
#
# Elastic Constant Matrix: (Units=GPa)
#
#
# Indices 1 2 3 4 5 6 
#
# 1 88.3673 43.2779 25.1910 -11.9084 -18.0674 6.9310
# 2 43.2779 211.5031 52.3700 -26.8484 -20.9392 14.6785
# 3 25.1910 52.3700 78.1139 5.5519 -7.4006 -0.4800
# 4 -11.9084 -26.8484 5.5519 46.8893 7.2680 -3.8552
# 5 -18.0674 -20.9392 -7.4006 7.2680 48.2285 -5.4672
# 6 6.9310 14.6785 -0.4800 -3.8552 -5.4672 25.6058
#
#
#
# Elastic Compliance Matrix: (Units=1/GPa)
#
#
# Indices 1 2 3 4 5 6 
#
# 1 0.014184 -0.001161 -0.003654 0.002639 0.003616 -0.002073
# 2 -0.001161 0.006827 -0.004396 0.003746 0.000960 -0.002913
# 3 -0.003654 -0.004396 0.017377 -0.005329 0.000549 0.003150
# 4 0.002639 0.003746 -0.005329 0.025107 -0.001940 0.000404
# 5 0.003616 0.000960 0.000549 -0.001940 0.023240 0.003151
# 6 -0.002073 -0.002913 0.003150 0.000404 0.003151 0.042077
#
#
# Mechanical properties :
#
#
# Convention : Reuss Voigt Hill
#
# Bulk Modulus (GPa) = 50.08104 68.85133 59.46619
# Shear Modulus (GPa) = 32.49098 41.28774 36.88936
#
# Velocity S-wave (km/s) = 3.66166 4.12769 3.90164
# Velocity P-wave (km/s) = 6.20834 7.15048 6.69600
#
# Compressibility (1/GPa) = 0.01996764
#
# Stress axis : x y z
#
# Youngs Moduli (GPa) = 70.50149 146.48282 57.54627
#
# Poissons Ratio (x) = 0.17003 0.21026
# Poissons Ratio (y) = 0.08183 0.25296
# Poissons Ratio (z) = 0.25760 0.64390
#
# Static dielectric constant tensor:
#      x y z
#    x 1.861830 0.025440 0.065200 
#    y 0.025440 1.932520 0.075960 
#    z 0.065200 0.075960 2.125960 
# 
# From -- ./inp_files/7081.got.cif
#   From: 2010.05.17/outbox.cif.g08.bks.cpg/sg2_4_cif.got.tgz:7081.got - 2010.06.03 11:33:40.
