data_PCOD9014163
_publ_section_title
;
Structure prediction by ZEFSAII (Michael W. Deem and Ramdas Pophale) SiO2 
 PCOD9014163
Probable space group: P -1
;
_chemical_formula_sum "Si O2"
_cell_formula_units_Z 14
_cell_length_a 16.186860
_cell_length_b 5.302042
_cell_length_c 21.902503
_cell_angle_alpha 83.919126
_cell_angle_beta 18.180772
_cell_angle_gamma 84.008139
_cell_volume 583.168947
_symmetry_space_group_name_H-M "P -1"
_symmetry_group_IT_number 2
_symmetry_cell_setting 'triclinic'
loop_
_space_group_symop_operation_xyz
x,y,z
-x,-y,-z
loop_
_atom_site_type_symbol
_atom_site_label
_atom_site_fract_x
_atom_site_fract_y
_atom_site_fract_z
Si Si1 0.982965 0.755168 0.935375
Si Si2 0.543172 0.441158 0.207148
Si Si3 0.173853 0.746389 0.386399
Si Si4 0.160308 0.640603 0.122798
Si Si5 0.634950 0.873535 0.966663
Si Si6 0.753269 0.979803 0.365358
Si Si7 0.564663 0.079539 0.300239
O O1 0.254017 0.759425 0.783238
O O2 0.827623 0.500809 0.036311
O O3 0.031428 0.873339 0.830815
O O4 0.771031 0.909613 0.121282
O O5 0.344197 0.677137 0.329263
O O6 0.419171 0.247494 0.346671
O O7 0.627856 0.354340 0.081977
O O8 0.391360 0.793750 0.181578
O O9 0.000000 0.500000 0.500000
O O10 0.000000 0.000000 0.500000
O O11 0.868955 0.693724 0.298862
O O12 0.197167 0.389539 0.144031
O O13 0.205699 0.898288 0.121172
O O14 0.500000 0.000000 0.000000
O O15 0.641573 0.062934 0.507732
O O16 0.500000 0.000000 0.500000
#
# Coordination Sequence:
#
# PCOD9014163 Si02
#       7
#     2   2   2   2   2   2   2
#     4  10  21  43  64  95 141 178 224 283 335 402
#     4  11  23  41  69  89 138 181 226 279 352 403
#     4  11  25  42  66  99 131 173 225 284 343 402
#     4  11  23  44  70 101 134 189 228 283 354 413
#     4  11  25  46  73  97 137 182 229 287 357 413
#     4  10  21  41  66  99 138 179 228 282 333 403
#     4  10  22  39  67  99 131 181 232 270 341 405
#
# _framework density 24.006765000000001
#
# number of rings (size 3 to 8) (size 9 to 14) (size 15 to 20)
#    0.000    1.429    1.429    4.286    2.000    2.286 
#    5.143    3.571    0.000    0.000    0.000    0.000 
#    0.000    0.000    0.000    0.000    0.000    0.000 
#
# Total GULP energy -78143.506301 kJ/mol
# GULP energy per Si atom -5581.679022 kJ/mol
# Density = 2.395212 g / cm^3
# Si number density = 24.006765 Si / 1000 Ang^3
#
#
#
# Elastic Constant Matrix: (Units=GPa)
#
#
# Indices 1 2 3 4 5 6 
#
# 1 126.3888 42.6614 32.8783 -0.3300 13.7094 -43.1879
# 2 42.6614 121.6924 36.2558 2.8754 -7.1532 -26.9923
# 3 32.8783 36.2558 98.5648 12.0493 6.7953 -16.6016
# 4 -0.3300 2.8754 12.0493 31.7264 -10.7087 -15.0169
# 5 13.7094 -7.1532 6.7953 -10.7087 48.0778 -6.9566
# 6 -43.1879 -26.9923 -16.6016 -15.0169 -6.9566 50.2246
#
#
#
# Elastic Compliance Matrix: (Units=1/GPa)
#
#
# Indices 1 2 3 4 5 6 
#
# 1 0.013086 -0.001415 -0.002681 0.006589 -0.000429 0.011516
# 2 -0.001415 0.011141 -0.003533 0.004392 0.004337 0.005517
# 3 -0.002681 -0.003533 0.013022 -0.007020 -0.003525 -0.002487
# 4 0.006589 0.004392 -0.007020 0.049129 0.013940 0.022326
# 5 -0.000429 0.004337 -0.003525 0.013940 0.026418 0.008624
# 6 0.011516 0.005517 -0.002487 0.022326 0.008624 0.039826
#
#
# Mechanical properties :
#
#
# Convention : Reuss Voigt Hill
#
# Bulk Modulus (GPa) = 45.47245 63.35965 54.41605
# Shear Modulus (GPa) = 28.53727 41.66247 35.09987
#
# Velocity S-wave (km/s) = 3.45152 4.17039 3.82787
# Velocity P-wave (km/s) = 5.90480 7.04551 6.50023
#
# Compressibility (1/GPa) = 0.02199134
#
# Stress axis : x y z
#
# Youngs Moduli (GPa) = 76.41630 89.75927 76.79549
#
# Poissons Ratio (x) = 0.12705 0.20586
# Poissons Ratio (y) = 0.10816 0.27129
# Poissons Ratio (z) = 0.20484 0.31709
#
# Static dielectric constant tensor:
#      x y z
#    x 2.035740 -0.031440 -0.069430 
#    y -0.031440 1.953790 -0.003620 
#    z -0.069430 -0.003620 1.919930 
# 
# From -- ./inp_files/596725.got.cif
#   From: 2010.05.17/outbox.cif.g08.bks.cpg/sg2_299_cif.got.tgz:596725.got - 2010.06.03 11:33:40.
