data_PCOD9014491
_publ_section_title
;
Structure prediction by ZEFSAII (Michael W. Deem and Ramdas Pophale) SiO2 
 PCOD9014491
Probable space group: P -1
;
_chemical_formula_sum "Si O2"
_cell_formula_units_Z 13
_cell_length_a 7.456030
_cell_length_b 13.594637
_cell_length_c 6.852070
_cell_angle_alpha 103.714876
_cell_angle_beta 116.579432
_cell_angle_gamma 115.344723
_cell_volume 475.913401
_symmetry_space_group_name_H-M "P -1"
_symmetry_group_IT_number 2
_symmetry_cell_setting 'triclinic'
loop_
_space_group_symop_operation_xyz
x,y,z
-x,-y,-z
loop_
_atom_site_type_symbol
_atom_site_label
_atom_site_fract_x
_atom_site_fract_y
_atom_site_fract_z
Si Si1 0.394983 0.601427 0.111880
Si Si2 0.865010 0.082537 0.555971
Si Si3 0.269480 0.355877 0.381639
Si Si4 0.275287 0.036773 0.188210
Si Si5 0.500000 0.000000 0.000000
Si Si6 0.064975 0.676617 0.109433
Si Si7 0.607258 0.770889 0.939459
O O1 0.660350 0.650595 0.365840
O O2 0.283754 0.660675 0.210727
O O3 0.421915 0.648403 0.925943
O O4 0.183401 0.448711 0.962883
O O5 0.867437 0.198242 0.694909
O O6 0.154287 0.136900 0.758421
O O7 0.704219 0.962558 0.571058
O O8 0.762596 0.056372 0.279606
O O9 0.500000 0.500000 0.500000
O O10 0.301931 0.267829 0.217693
O O11 0.025090 0.336122 0.165866
O O12 0.329907 0.941746 0.094637
O O13 0.465660 0.146082 0.164905
O O14 0.000000 0.000000 0.000000
#
# Coordination Sequence:
#
# PCOD9014491 Si02
#       7
#     2   2   2   2   1   2   2
#     4  10  21  41  68 101 138 178 228 282 355 427
#     4  10  24  45  66 100 139 176 237 291 343 422
#     4   9  20  39  63  95 135 177 218 282 346 407
#     4  10  25  46  67  98 137 178 240 294 341 418
#     4  12  26  44  72 100 132 200 226 288 364 410
#     4   9  21  42  67  99 142 177 225 296 344 414
#     4  10  23  42  69  99 133 183 227 284 353 423
#
# _framework density 27.315895000000001
#
# number of rings (size 3 to 8) (size 9 to 14) (size 15 to 20)
#    0.000    2.154    0.000    0.462    4.308   12.923 
#    0.000    8.462    0.000    0.000    0.000    0.000 
#    0.000    0.000    0.000    0.000    0.000    0.000 
#
# Total GULP energy -72503.123681 kJ/mol
# GULP energy per Si atom -5577.163360 kJ/mol
# Density = 2.725372 g / cm^3
# Si number density = 27.315895 Si / 1000 Ang^3
#
#
#
# Elastic Constant Matrix: (Units=GPa)
#
#
# Indices 1 2 3 4 5 6 
#
# 1 81.4905 -2.8021 13.1104 -0.3063 4.2068 -3.7508
# 2 -2.8021 157.8102 26.1616 -17.1768 -1.4603 3.8493
# 3 13.1104 26.1616 104.8722 -25.4950 11.3663 -23.8362
# 4 -0.3063 -17.1768 -25.4950 48.5885 -2.9417 -7.7838
# 5 4.2068 -1.4603 11.3663 -2.9417 49.2235 -11.3198
# 6 -3.7508 3.8493 -23.8362 -7.7838 -11.3198 30.1565
#
#
#
# Elastic Compliance Matrix: (Units=1/GPa)
#
#
# Indices 1 2 3 4 5 6 
#
# 1 0.012614 0.000455 -0.001962 -0.000931 -0.000801 -0.000580
# 2 0.000455 0.006842 -0.001991 0.001065 0.000220 -0.002033
# 3 -0.001962 -0.001991 0.016355 0.010443 0.000603 0.015859
# 4 -0.000931 0.001065 0.010443 0.029326 0.003320 0.016818
# 5 -0.000801 0.000220 0.000603 0.003320 0.022685 0.009721
# 6 -0.000580 -0.002033 0.015859 0.016818 0.009721 0.053873
#
#
# Mechanical properties :
#
#
# Convention : Reuss Voigt Hill
#
# Bulk Modulus (GPa) = 34.70329 46.34585 40.52457
# Shear Modulus (GPa) = 31.58618 46.10724 38.84671
#
# Velocity S-wave (km/s) = 3.40417 4.11290 3.77520
# Velocity P-wave (km/s) = 5.30879 6.28952 5.81985
#
# Compressibility (1/GPa) = 0.02881571
#
# Stress axis : x y z
#
# Youngs Moduli (GPa) = 79.27872 146.14857 61.14229
#
# Poissons Ratio (x) = -0.06644 0.11994
# Poissons Ratio (y) = -0.03604 0.12172
# Poissons Ratio (z) = 0.15552 0.29095
#
# Static dielectric constant tensor:
#      x y z
#    x 1.932260 0.330130 0.202750 
#    y 0.330130 2.003830 -0.009530 
#    z 0.202750 -0.009530 2.094620 
# 
# From -- ./inp_files/35674.got.cif
#   From: 2010.05.17/outbox.cif.g08.bks.cpg/sg2_18_cif.got.tgz:35674.got - 2010.06.03 11:33:40.
