data_PCOD9014111
_publ_section_title
;
Structure prediction by ZEFSAII (Michael W. Deem and Ramdas Pophale) SiO2 
 PCOD9014111
Probable space group: P -1
;
_chemical_formula_sum "Si O2"
_cell_formula_units_Z 16
_cell_length_a 9.545568
_cell_length_b 9.677402
_cell_length_c 19.099619
_cell_angle_alpha 61.992537
_cell_angle_beta 127.740547
_cell_angle_gamma 151.353671
_cell_volume 658.164292
_symmetry_space_group_name_H-M "P -1"
_symmetry_group_IT_number 2
_symmetry_cell_setting 'triclinic'
loop_
_space_group_symop_operation_xyz
x,y,z
-x,-y,-z
loop_
_atom_site_type_symbol
_atom_site_label
_atom_site_fract_x
_atom_site_fract_y
_atom_site_fract_z
Si Si1 0.933900 0.201210 0.684323
Si Si2 0.082490 0.615674 0.714743
Si Si3 0.759406 0.700559 0.111625
Si Si4 0.090932 0.239786 0.098253
Si Si5 0.853943 0.722481 0.529574
Si Si6 0.504785 0.138592 0.910622
Si Si7 0.726041 0.429373 0.423270
Si Si8 0.211501 0.795548 0.160962
O O1 0.925108 0.370557 0.672169
O O2 0.989996 0.136968 0.784389
O O3 0.233012 0.433461 0.665962
O O4 0.620906 0.916095 0.611304
O O5 0.035960 0.748822 0.634762
O O6 0.901756 0.441271 0.773339
O O7 0.473296 0.887032 0.781180
O O8 0.412677 0.406484 0.114771
O O9 0.898200 0.681215 0.100843
O O10 0.809386 0.917943 0.051446
O O11 0.242023 0.529656 0.074766
O O12 0.881212 0.090127 0.145255
O O13 0.500000 0.500000 0.500000
O O14 0.796904 0.589720 0.472184
O O15 0.000000 0.000000 0.500000
O O16 0.642226 0.156746 0.878666
O O17 0.500000 0.000000 0.000000
O O18 0.000000 0.500000 0.500000
#
# Coordination Sequence:
#
# PCOD9014111 Si02
#       8
#     2   2   2   2   2   2   2   2
#     4  11  22  40  68  94 120 172 228 280 335 395
#     4  11  23  42  69  94 133 176 232 289 331 409
#     4  10  21  41  66  97 136 164 221 292 332 385
#     4  10  22  42  65  99 139 168 210 283 330 382
#     4  12  27  45  59  91 140 174 224 284 348 396
#     4  11  24  46  70  99 141 184 221 263 328 420
#     4  12  24  40  67  89 121 174 233 271 338 405
#     4  11  23  43  72 100 127 184 233 268 344 415
#
# _framework density 24.310040000000001
#
# number of rings (size 3 to 8) (size 9 to 14) (size 15 to 20)
#    0.000    1.000    1.250    6.750    1.750    0.000 
#   22.500    3.750    0.000    0.000    0.000    0.000 
#    0.000    0.000    0.000    0.000    0.000    0.000 
#
# Total GULP energy -89154.880129 kJ/mol
# GULP energy per Si atom -5572.180008 kJ/mol
# Density = 2.425471 g / cm^3
# Si number density = 24.310040 Si / 1000 Ang^3
#
#
#
# Elastic Constant Matrix: (Units=GPa)
#
#
# Indices 1 2 3 4 5 6 
#
# 1 215.1980 77.5607 44.1583 -10.9050 -15.8244 10.8368
# 2 77.5607 200.2860 33.4846 -1.1316 -5.1297 8.8792
# 3 44.1583 33.4846 47.6415 -14.6316 -22.1817 -5.8116
# 4 -10.9050 -1.1316 -14.6316 39.8989 5.5275 2.8031
# 5 -15.8244 -5.1297 -22.1817 5.5275 23.5039 -11.8778
# 6 10.8368 8.8792 -5.8116 2.8031 -11.8778 58.5224
#
#
#
# Elastic Compliance Matrix: (Units=1/GPa)
#
#
# Indices 1 2 3 4 5 6 
#
# 1 0.006428 -0.001241 -0.007433 -0.000240 -0.004206 -0.002582
# 2 -0.001241 0.006866 -0.008859 -0.001909 -0.008979 -0.003423
# 3 -0.007433 -0.008859 0.075426 0.013484 0.073440 0.024471
# 4 -0.000240 -0.001909 0.013484 0.028934 0.006115 0.001528
# 5 -0.004206 -0.008979 0.073440 0.006115 0.122845 0.034074
# 6 -0.002582 -0.003423 0.024471 0.001528 0.034074 0.027358
#
#
# Mechanical properties :
#
#
# Convention : Reuss Voigt Hill
#
# Bulk Modulus (GPa) = 18.63834 85.94810 52.29322
# Shear Modulus (GPa) = 15.58567 44.91317 30.24942
#
# Velocity S-wave (km/s) = 2.53478 4.30294 3.53132
# Velocity P-wave (km/s) = 4.03118 7.75363 6.17937
#
# Compressibility (1/GPa) = 0.05365286
#
# Stress axis : x y z
#
# Youngs Moduli (GPa) = 155.56911 145.65284 13.25800
#
# Poissons Ratio (x) = 0.18078 0.09855
# Poissons Ratio (y) = 0.19309 0.11746
# Poissons Ratio (z) = 1.15633 1.29039
#
# Static dielectric constant tensor:
#      x y z
#    x 1.927310 0.058900 0.005570 
#    y 0.058900 1.884780 -0.013920 
#    z 0.005570 -0.013920 2.000740 
# 
# From -- ./inp_files/587360.got.cif
#   From: 2010.05.17/outbox.cif.g08.bks.cpg/sg2_294_cif.got.tgz:587360.got - 2010.06.03 11:33:40.
