data_PCOD9014017
_publ_section_title
;
Structure prediction by ZEFSAII (Michael W. Deem and Ramdas Pophale) SiO2 
 PCOD9014017
Probable space group: P -1
;
_chemical_formula_sum "Si O2"
_cell_formula_units_Z 16
_cell_length_a 16.142781
_cell_length_b 7.717730
_cell_length_c 18.458542
_cell_angle_alpha 117.856125
_cell_angle_beta 23.801872
_cell_angle_gamma 103.918336
_cell_volume 698.868043
_symmetry_space_group_name_H-M "P -1"
_symmetry_group_IT_number 2
_symmetry_cell_setting 'triclinic'
loop_
_space_group_symop_operation_xyz
x,y,z
-x,-y,-z
loop_
_atom_site_type_symbol
_atom_site_label
_atom_site_fract_x
_atom_site_fract_y
_atom_site_fract_z
Si Si1 0.990185 0.106142 0.795221
Si Si2 0.373087 0.196816 0.936643
Si Si3 0.454242 0.722094 0.745880
Si Si4 0.939868 0.285069 0.225723
Si Si5 0.177238 0.688350 0.839477
Si Si6 0.788024 0.396665 0.756624
Si Si7 0.280241 0.207704 0.676562
Si Si8 0.079855 0.935024 0.531610
O O1 0.043526 0.908230 0.771833
O O2 0.989671 0.006794 0.698802
O O3 0.195178 0.164151 0.658361
O O4 0.726018 0.321696 0.070141
O O5 0.633709 0.162651 0.712766
O O6 0.441717 0.934562 0.838279
O O7 0.222273 0.381911 0.156767
O O8 0.186533 0.285343 0.036116
O O9 0.720145 0.519241 0.479200
O O10 0.323818 0.780514 0.782940
O O11 0.889263 0.243791 0.176705
O O12 0.330732 0.411435 0.667437
O O13 0.942848 0.738074 0.081970
O O14 0.920481 0.273256 0.551107
O O15 0.500000 0.500000 0.000000
O O16 0.923169 0.174634 0.658818
O O17 0.500000 0.000000 0.500000
#
# Coordination Sequence:
#
# PCOD9014017 Si02
#       8
#     2   2   2   2   2   2   2   2
#     4  10  24  38  60  93 124 165 204 259 317 362
#     4  10  22  36  64  95 117 161 207 250 312 373
#     4  10  22  40  56  86 128 166 212 257 306 359
#     4  11  23  40  61  87 128 172 211 252 312 370
#     4  10  23  39  59  86 123 173 215 260 303 360
#     4   9  20  40  66  96 122 157 202 255 322 376
#     4  10  22  38  60  91 124 162 216 263 308 354
#     4  10  21  41  66  94 128 154 205 263 312 377
#
# _framework density 22.894164
#
# number of rings (size 3 to 8) (size 9 to 14) (size 15 to 20)
#    0.000    2.000    0.000    1.875    5.250    7.500 
#    0.000    2.500    0.000   28.500    0.000    0.000 
#    0.000    0.000    0.000    0.000    0.000    0.000 
#
# Total GULP energy -89257.022532 kJ/mol
# GULP energy per Si atom -5578.563908 kJ/mol
# Density = 2.284206 g / cm^3
# Si number density = 22.894164 Si / 1000 Ang^3
#
#
#
# Elastic Constant Matrix: (Units=GPa)
#
#
# Indices 1 2 3 4 5 6 
#
# 1 129.6953 32.8413 41.1189 9.4386 24.5617 4.5203
# 2 32.8413 53.6099 13.8172 16.8448 6.9839 10.3651
# 3 41.1189 13.8172 120.7472 19.1274 -0.8759 -2.8300
# 4 9.4386 16.8448 19.1274 29.0279 6.9582 4.4648
# 5 24.5617 6.9839 -0.8759 6.9582 48.3844 7.2079
# 6 4.5203 10.3651 -2.8300 4.4648 7.2079 33.2981
#
#
#
# Elastic Compliance Matrix: (Units=1/GPa)
#
#
# Indices 1 2 3 4 5 6 
#
# 1 0.011301 -0.006612 -0.003712 0.003796 -0.005529 0.000896
# 2 -0.006612 0.027812 0.001221 -0.014402 0.002364 -0.006237
# 3 -0.003712 0.001221 0.010629 -0.007384 0.002751 0.001422
# 4 0.003796 -0.014402 -0.007384 0.048298 -0.006676 -0.001691
# 5 -0.005529 0.002364 0.002751 -0.006676 0.024772 -0.004219
# 6 0.000896 -0.006237 0.001422 -0.001691 -0.004219 0.033112
#
#
# Mechanical properties :
#
#
# Convention : Reuss Voigt Hill
#
# Bulk Modulus (GPa) = 31.70936 53.28968 42.49952
# Shear Modulus (GPa) = 27.07939 36.56042 31.81990
#
# Velocity S-wave (km/s) = 3.44293 4.00050 3.73214
# Velocity P-wave (km/s) = 5.44844 6.68324 6.09718
#
# Compressibility (1/GPa) = 0.03153643
#
# Stress axis : x y z
#
# Youngs Moduli (GPa) = 88.48574 35.95574 94.08164
#
# Poissons Ratio (x) = 0.23774 0.34926
# Poissons Ratio (y) = 0.58508 -0.11491
# Poissons Ratio (z) = 0.32848 -0.04392
#
# Static dielectric constant tensor:
#      x y z
#    x 1.905420 0.059520 0.009610 
#    y 0.059520 1.906100 0.003180 
#    z 0.009610 0.003180 1.948480 
# 
# From -- ./inp_files/495453.got.cif
#   From: 2010.05.17/outbox.cif.g08.bks.cpg/sg2_248_cif.got.tgz:495453.got - 2010.06.03 11:33:40.
