data_PCOD9014627
_publ_section_title
;
Structure prediction by ZEFSAII (Michael W. Deem and Ramdas Pophale) SiO2 
 PCOD9014627
Probable space group: P -1
;
_chemical_formula_sum "Si O2"
_cell_formula_units_Z 15
_cell_length_a 9.319557
_cell_length_b 6.153901
_cell_length_c 11.826141
_cell_angle_alpha 87.599083
_cell_angle_beta 84.675759
_cell_angle_gamma 93.526665
_cell_volume 673.269723
_symmetry_space_group_name_H-M "P -1"
_symmetry_group_IT_number 2
_symmetry_cell_setting 'triclinic'
loop_
_space_group_symop_operation_xyz
x,y,z
-x,-y,-z
loop_
_atom_site_type_symbol
_atom_site_label
_atom_site_fract_x
_atom_site_fract_y
_atom_site_fract_z
Si Si1 0.800364 0.565425 0.554504
Si Si2 0.000000 0.000000 0.500000
Si Si3 0.266550 0.787451 0.256597
Si Si4 0.074504 0.813877 0.067781
Si Si5 0.505692 0.509854 0.133755
Si Si6 0.821653 0.453880 0.136480
Si Si7 0.554571 0.824798 0.664337
Si Si8 0.227456 0.783852 0.628996
O O1 0.823900 0.389066 0.656385
O O2 0.645616 0.658953 0.590954
O O3 0.787033 0.431577 0.443074
O O4 0.924621 0.756732 0.545272
O O5 0.135426 0.964486 0.576423
O O6 0.166393 0.892452 0.168574
O O7 0.392803 0.672542 0.185262
O O8 0.342347 0.959496 0.332698
O O9 0.952454 0.634282 0.121522
O O10 0.172718 0.684146 0.976793
O O11 0.000000 0.000000 0.000000
O O12 0.671353 0.568343 0.154001
O O13 0.467598 0.281851 0.206438
O O14 0.500000 0.500000 0.000000
O O15 0.828928 0.286058 0.241859
O O16 0.397496 0.856900 0.625717
#
# Coordination Sequence:
#
# PCOD9014627 Si02
#       8
#     2   1   2   2   2   2   2   2
#     4  11  25  45  70  99 135 180 223 288 334 401
#     4  12  26  42  72  96 134 178 228 276 336 410
#     4  11  24  44  69 103 137 178 226 283 340 397
#     4  11  25  41  66  95 135 177 219 277 340 405
#     4  10  21  41  68  95 135 177 225 280 329 397
#     4  10  24  44  64  97 134 174 224 281 331 400
#     4  10  25  43  70 101 136 179 227 279 339 404
#     4  11  25  46  68 101 136 178 228 280 338 402
#
# _framework density 22.279332
#
# number of rings (size 3 to 8) (size 9 to 14) (size 15 to 20)
#    0.000    1.333    1.333    2.400    1.867   13.333 
#    0.000    0.000    0.000    0.000    0.000    0.000 
#    0.000    0.000    0.000    0.000    0.000    0.000 
#
# Total GULP energy -83714.526850 kJ/mol
# GULP energy per Si atom -5580.968457 kJ/mol
# Density = 2.222862 g / cm^3
# Si number density = 22.279332 Si / 1000 Ang^3
#
#
#
# Elastic Constant Matrix: (Units=GPa)
#
#
# Indices 1 2 3 4 5 6 
#
# 1 103.4511 33.8536 53.9214 -25.5715 25.6073 5.1168
# 2 33.8536 55.3443 28.1167 -17.0311 6.6803 14.7994
# 3 53.9214 28.1167 87.8931 -14.8201 5.0455 7.7368
# 4 -25.5715 -17.0311 -14.8201 23.9942 -6.1748 6.9886
# 5 25.6073 6.6803 5.0455 -6.1748 43.6645 -7.8358
# 6 5.1168 14.7994 7.7368 6.9886 -7.8358 23.0500
#
#
#
# Elastic Compliance Matrix: (Units=1/GPa)
#
#
# Indices 1 2 3 4 5 6 
#
# 1 0.022504 0.002680 -0.009131 0.021273 -0.012095 -0.014213
# 2 0.002680 0.044373 -0.004385 0.041835 -0.009765 -0.043617
# 3 -0.009131 -0.004385 0.017981 -0.000848 0.003898 0.000389
# 4 0.021273 0.041835 -0.000848 0.109832 -0.015803 -0.069971
# 5 -0.012095 -0.009765 0.003898 -0.015803 0.033052 0.023674
# 6 -0.014213 -0.043617 0.000389 -0.069971 0.023674 0.103675
#
#
# Mechanical properties :
#
#
# Convention : Reuss Voigt Hill
#
# Bulk Modulus (GPa) = 15.82624 53.16353 34.49489
# Shear Modulus (GPa) = 13.36362 26.86153 20.11257
#
# Velocity S-wave (km/s) = 2.45178 3.47604 3.00783
# Velocity P-wave (km/s) = 3.89024 6.32650 5.25160
#
# Compressibility (1/GPa) = 0.06318621
#
# Stress axis : x y z
#
# Youngs Moduli (GPa) = 44.43716 22.53638 55.61460
#
# Poissons Ratio (x) = -0.06041 0.50781
# Poissons Ratio (y) = -0.11911 0.24388
# Poissons Ratio (z) = 0.40575 0.09882
#
# Static dielectric constant tensor:
#      x y z
#    x 1.802570 -0.016030 -0.033920 
#    y -0.016030 1.810160 0.016810 
#    z -0.033920 0.016810 1.823330 
# 
# From -- ./inp_files/131659.got.cif
#   From: 2010.05.17/outbox.cif.g08.bks.cpg/sg2_66_cif.got.tgz:131659.got - 2010.06.03 11:33:40.
