data_PCOD9014916
_publ_section_title
;
Structure prediction by ZEFSAII (Michael W. Deem and Ramdas Pophale) SiO2 
 PCOD9014916
Probable space group: P -1
;
_chemical_formula_sum "Si O2"
_cell_formula_units_Z 14
_cell_length_a 8.349403
_cell_length_b 14.504598
_cell_length_c 8.589308
_cell_angle_alpha 50.333465
_cell_angle_beta 74.326795
_cell_angle_gamma 107.619742
_cell_volume 591.681151
_symmetry_space_group_name_H-M "P -1"
_symmetry_group_IT_number 2
_symmetry_cell_setting 'triclinic'
loop_
_space_group_symop_operation_xyz
x,y,z
-x,-y,-z
loop_
_atom_site_type_symbol
_atom_site_label
_atom_site_fract_x
_atom_site_fract_y
_atom_site_fract_z
Si Si1 0.340025 0.683982 0.643483
Si Si2 0.909608 0.090034 0.467591
Si Si3 0.033370 0.792397 0.009386
Si Si4 0.589912 0.676681 0.318663
Si Si5 0.890314 0.594819 0.755068
Si Si6 0.515110 0.014955 0.166925
Si Si7 0.802324 0.495292 0.544695
O O1 0.506154 0.684790 0.495254
O O2 0.461429 0.866353 0.434918
O O3 0.121904 0.632194 0.669421
O O4 0.267387 0.566253 0.932096
O O5 0.677689 0.987465 0.723229
O O6 0.068761 0.254646 0.343361
O O7 0.000000 0.000000 0.500000
O O8 0.882942 0.140427 0.253653
O O9 0.848073 0.803452 0.095681
O O10 0.883400 0.606679 0.252809
O O11 0.232549 0.853076 0.002315
O O12 0.500000 0.500000 0.500000
O O13 0.431186 0.669635 0.245550
O O14 0.807993 0.569075 0.627098
O O15 0.500000 0.000000 0.000000
O O16 0.000000 0.500000 0.500000
#
# Coordination Sequence:
#
# PCOD9014916 Si02
#       7
#     2   2   2   2   2   2   2
#     4  10  21  41  70 100 144 182 239 301 358 431
#     4  11  26  48  74 105 147 190 242 303 364 435
#     4  11  25  46  68 100 148 189 242 294 366 432
#     4  10  22  41  64 105 140 187 234 297 360 424
#     4  10  21  43  72 107 139 186 245 299 362 426
#     4  11  26  48  73 105 141 195 247 295 372 439
#     4  11  22  40  75 106 140 187 243 301 362 430
#
# _framework density 23.661391999999999
#
# number of rings (size 3 to 8) (size 9 to 14) (size 15 to 20)
#    0.000    1.429    1.429    3.857    6.000    0.571 
#    7.714    3.571    0.000    0.000    0.000    0.000 
#    0.000    0.000    0.000    0.000    0.000    0.000 
#
# Total GULP energy -78045.580825 kJ/mol
# GULP energy per Si atom -5574.684345 kJ/mol
# Density = 2.360754 g / cm^3
# Si number density = 23.661392 Si / 1000 Ang^3
#
#
#
# Elastic Constant Matrix: (Units=GPa)
#
#
# Indices 1 2 3 4 5 6 
#
# 1 105.3371 34.7661 40.0636 9.9616 -31.3776 -14.4468
# 2 34.7661 81.9829 43.6395 8.4397 -9.8031 -22.2004
# 3 40.0636 43.6395 131.4945 -0.3716 -14.4403 -9.7325
# 4 9.9616 8.4397 -0.3716 43.5729 -4.8625 0.5814
# 5 -31.3776 -9.8031 -14.4403 -4.8625 45.7921 4.0466
# 6 -14.4468 -22.2004 -9.7325 0.5814 4.0466 44.0837
#
#
#
# Elastic Compliance Matrix: (Units=1/GPa)
#
#
# Indices 1 2 3 4 5 6 
#
# 1 0.014205 -0.003181 -0.002264 -0.001784 0.007986 0.001844
# 2 -0.003181 0.018179 -0.004617 -0.003007 -0.000699 0.007197
# 3 -0.002264 -0.004617 0.009848 0.001601 0.000824 -0.000989
# 4 -0.001784 -0.003007 0.001601 0.024139 0.001395 -0.002192
# 5 0.007986 -0.000699 0.000824 0.001395 0.027577 -0.000103
# 6 0.001844 0.007197 -0.000989 -0.002192 -0.000103 0.026733
#
#
# Mechanical properties :
#
#
# Convention : Reuss Voigt Hill
#
# Bulk Modulus (GPa) = 45.22900 61.75035 53.48967
# Shear Modulus (GPa) = 33.74431 40.04609 36.89520
#
# Velocity S-wave (km/s) = 3.78052 4.11842 3.95308
# Velocity P-wave (km/s) = 6.18167 6.98351 6.59478
#
# Compressibility (1/GPa) = 0.02210971
#
# Stress axis : x y z
#
# Youngs Moduli (GPa) = 70.39966 55.00912 101.53861
#
# Poissons Ratio (x) = 0.17497 0.22986
# Poissons Ratio (y) = 0.22392 0.46876
# Poissons Ratio (z) = 0.15937 0.25395
#
# Static dielectric constant tensor:
#      x y z
#    x 2.118420 -0.018120 0.071940 
#    y -0.018120 1.956900 -0.040760 
#    z 0.071940 -0.040760 1.890950 
# 
# From -- ./inp_files/205500.got.cif
#   From: 2010.05.17/outbox.cif.g08.bks.cpg/sg2_103_cif.got.tgz:205500.got - 2010.06.03 11:33:40.
