data_PCOD9014997
_publ_section_title
;
Structure prediction by ZEFSAII (Michael W. Deem and Ramdas Pophale) SiO2 
 PCOD9014997
Probable space group: P -1
;
_chemical_formula_sum "Si O2"
_cell_formula_units_Z 16
_cell_length_a 8.536855
_cell_length_b 17.010088
_cell_length_c 8.836451
_cell_angle_alpha 60.351942
_cell_angle_beta 129.889286
_cell_angle_gamma 127.757431
_cell_volume 767.318091
_symmetry_space_group_name_H-M "P -1"
_symmetry_group_IT_number 2
_symmetry_cell_setting 'triclinic'
loop_
_space_group_symop_operation_xyz
x,y,z
-x,-y,-z
loop_
_atom_site_type_symbol
_atom_site_label
_atom_site_fract_x
_atom_site_fract_y
_atom_site_fract_z
Si Si1 0.299434 0.421460 0.054302
Si Si2 0.402723 0.057522 0.490809
Si Si3 0.676012 0.100085 0.932009
Si Si4 0.060181 0.016629 0.842539
Si Si5 0.985412 0.604729 0.374350
Si Si6 0.517660 0.739363 0.596709
Si Si7 0.537074 0.776292 0.220752
Si Si8 0.525090 0.568904 0.303988
O O1 0.373209 0.334370 0.221345
O O2 0.323151 0.491944 0.144747
O O3 0.500000 0.500000 0.000000
O O4 0.079295 0.383928 0.849082
O O5 0.559134 0.087548 0.707496
O O6 0.413319 0.163959 0.345456
O O7 0.500000 0.000000 0.500000
O O8 0.134474 0.986791 0.389376
O O9 0.675609 0.195353 0.926692
O O10 0.500000 0.000000 0.000000
O O11 0.892760 0.079182 0.077473
O O12 0.270453 0.126251 0.837761
O O13 0.000000 0.000000 0.000000
O O14 0.775720 0.600509 0.352016
O O15 0.000000 0.500000 0.500000
O O16 0.242585 0.685546 0.487522
O O17 0.593539 0.770854 0.439014
O O18 0.502319 0.670866 0.228430
O O19 0.500000 0.500000 0.500000
#
# Coordination Sequence:
#
# PCOD9014997 Si02
#       8
#     2   2   2   2   2   2   2   2
#     4  10  21  41  70  95 131 175 220 271 333 387
#     4  11  24  41  67  98 131 170 230 278 326 400
#     4   9  21  42  63  91 134 168 216 276 331 391
#     4  11  23  43  70  97 133 178 228 277 342 398
#     4  11  22  42  70  94 132 179 223 273 337 396
#     4  11  23  43  66  96 135 176 225 277 337 395
#     4  10  23  40  68  97 138 179 216 284 336 391
#     4  11  21  41  70  97 139 171 225 279 323 404
#
# _framework density 20.851848
#
# number of rings (size 3 to 8) (size 9 to 14) (size 15 to 20)
#    0.000    1.500    5.000    0.000    1.750    8.500 
#    0.000    3.750    5.500    0.000    0.000    0.000 
#    0.000    0.000    0.000    0.000    0.000    0.000 
#
# Total GULP energy -89132.390974 kJ/mol
# GULP energy per Si atom -5570.774436 kJ/mol
# Density = 2.080439 g / cm^3
# Si number density = 20.851848 Si / 1000 Ang^3
#
#
#
# Elastic Constant Matrix: (Units=GPa)
#
#
# Indices 1 2 3 4 5 6 
#
# 1 103.5615 64.4851 36.7544 -13.1297 12.1077 -22.3638
# 2 64.4851 142.8009 33.8142 -25.6092 9.6314 -32.8066
# 3 36.7544 33.8142 84.7856 -17.3123 14.0430 -11.1192
# 4 -13.1297 -25.6092 -17.3123 39.9017 3.0542 9.1263
# 5 12.1077 9.6314 14.0430 3.0542 38.8461 -12.7718
# 6 -22.3638 -32.8066 -11.1192 9.1263 -12.7718 53.0431
#
#
#
# Elastic Compliance Matrix: (Units=1/GPa)
#
#
# Indices 1 2 3 4 5 6 
#
# 1 0.014893 -0.005366 -0.003995 -0.000632 -0.001177 0.001948
# 2 -0.005366 0.011246 -0.000814 0.004217 0.000103 0.003822
# 3 -0.003995 -0.000814 0.015684 0.005597 -0.005015 -0.001070
# 4 -0.000632 0.004217 0.005597 0.031264 -0.006454 -0.003418
# 5 -0.001177 0.000103 -0.005015 -0.006454 0.030713 0.007022
# 6 0.001948 0.003822 -0.001070 -0.003418 0.007022 0.024092
#
#
# Mechanical properties :
#
#
# Convention : Reuss Voigt Hill
#
# Bulk Modulus (GPa) = 46.56785 66.80615 56.68700
# Shear Modulus (GPa) = 32.17526 39.43111 35.80318
#
# Velocity S-wave (km/s) = 3.93242 4.35330 4.14820
# Velocity P-wave (km/s) = 6.55742 7.57471 7.08435
#
# Compressibility (1/GPa) = 0.02147404
#
# Stress axis : x y z
#
# Youngs Moduli (GPa) = 67.14450 88.92214 63.76022
#
# Poissons Ratio (x) = 0.47714 0.25471
# Poissons Ratio (y) = 0.36028 0.05189
# Poissons Ratio (z) = 0.26822 0.07237
#
# Static dielectric constant tensor:
#      x y z
#    x 1.739600 0.010560 0.024350 
#    y 0.010560 1.782060 0.032210 
#    z 0.024350 0.032210 1.765560 
# 
# From -- ./inp_files/212385.got.cif
#   From: 2010.05.17/outbox.cif.g08.bks.cpg/sg2_107_cif.got.tgz:212385.got - 2010.06.03 11:33:40.
