data_PCOD9014072
_publ_section_title
;
Structure prediction by ZEFSAII (Michael W. Deem and Ramdas Pophale) SiO2 
 PCOD9014072
Probable space group: P -1
;
_chemical_formula_sum "Si O2"
_cell_formula_units_Z 14
_cell_length_a 8.920305
_cell_length_b 17.407708
_cell_length_c 7.833117
_cell_angle_alpha 36.579034
_cell_angle_beta 111.689997
_cell_angle_gamma 128.076055
_cell_volume 549.751843
_symmetry_space_group_name_H-M "P -1"
_symmetry_group_IT_number 2
_symmetry_cell_setting 'triclinic'
loop_
_space_group_symop_operation_xyz
x,y,z
-x,-y,-z
loop_
_atom_site_type_symbol
_atom_site_label
_atom_site_fract_x
_atom_site_fract_y
_atom_site_fract_z
Si Si1 0.427644 0.340073 0.362087
Si Si2 0.972312 0.827407 0.678857
Si Si3 0.632795 0.221601 0.797941
Si Si4 0.717608 0.649021 0.368805
Si Si5 0.117849 0.451747 0.650796
Si Si6 0.346023 0.098577 0.220770
Si Si7 0.688735 0.945170 0.339900
O O1 0.237063 0.197885 0.403842
O O2 0.633884 0.410336 0.443641
O O3 0.276923 0.321131 0.481724
O O4 0.500000 0.500000 0.000000
O O5 0.914661 0.068028 0.292834
O O6 0.923366 0.658980 0.005736
O O7 0.146052 0.921093 0.444533
O O8 0.867341 0.377507 0.650274
O O9 0.469140 0.187133 0.637700
O O10 0.507600 0.156160 0.039592
O O11 0.500000 0.500000 0.500000
O O12 0.858401 0.610853 0.409126
O O13 0.733813 0.793793 0.026590
O O14 0.675039 0.089869 0.009720
O O15 0.428017 0.119782 0.408936
#
# Coordination Sequence:
#
# PCOD9014072 Si02
#       7
#     2   2   2   2   2   2   2
#     4  11  23  42  65 101 125 171 225 267 320 388
#     4  10  24  41  67  96 134 166 217 270 324 383
#     4  11  22  41  68  95 132 176 214 267 325 391
#     4  11  23  43  67  93 132 173 218 271 324 388
#     4  12  23  44  69  94 132 178 213 269 335 383
#     4   9  21  41  68  92 129 175 219 258 325 385
#     4  10  21  41  66  96 130 168 213 272 323 380
#
# _framework density 25.466035000000002
#
# number of rings (size 3 to 8) (size 9 to 14) (size 15 to 20)
#    0.857    0.571    4.286    2.143    2.000    2.857 
#    2.571    0.714    0.000    0.000    0.000    0.000 
#    0.000    0.000    0.000    0.000    0.000    0.000 
#
# Total GULP energy -78018.401498 kJ/mol
# GULP energy per Si atom -5572.742964 kJ/mol
# Density = 2.540807 g / cm^3
# Si number density = 25.466035 Si / 1000 Ang^3
#
#
#
# Elastic Constant Matrix: (Units=GPa)
#
#
# Indices 1 2 3 4 5 6 
#
# 1 151.2469 65.3278 40.4277 8.5469 3.6560 37.0550
# 2 65.3278 176.8807 69.4201 -4.2648 -5.5651 2.9989
# 3 40.4277 69.4201 161.3888 -12.5117 -11.3851 13.0520
# 4 8.5469 -4.2648 -12.5117 67.3818 17.2979 18.7932
# 5 3.6560 -5.5651 -11.3851 17.2979 53.8582 4.5658
# 6 37.0550 2.9989 13.0520 18.7932 4.5658 48.2658
#
#
#
# Elastic Compliance Matrix: (Units=1/GPa)
#
#
# Indices 1 2 3 4 5 6 
#
# 1 0.010038 -0.003417 -0.000424 0.000735 -0.000716 -0.007598
# 2 -0.003417 0.007976 -0.002839 -0.000540 0.000369 0.003071
# 3 -0.000424 -0.002839 0.007930 0.001752 0.001055 -0.002425
# 4 0.000735 -0.000540 0.001752 0.018481 -0.005016 -0.007726
# 5 -0.000716 0.000369 0.001055 -0.005016 0.020466 0.000259
# 6 -0.007598 0.003071 -0.002425 -0.007726 0.000259 0.030000
#
#
# Mechanical properties :
#
#
# Convention : Reuss Voigt Hill
#
# Bulk Modulus (GPa) = 79.46379 93.31863 86.39121
# Shear Modulus (GPa) = 44.46535 54.85722 49.66129
#
# Velocity S-wave (km/s) = 4.18313 4.64630 4.42078
# Velocity P-wave (km/s) = 7.38938 8.09370 7.74955
#
# Compressibility (1/GPa) = 0.01258435
#
# Stress axis : x y z
#
# Youngs Moduli (GPa) = 99.61930 125.36998 126.10448
#
# Poissons Ratio (x) = 0.42840 0.05344
# Poissons Ratio (y) = 0.34041 0.35804
# Poissons Ratio (z) = 0.04222 0.35595
#
# Static dielectric constant tensor:
#      x y z
#    x 2.191750 -0.006350 0.195660 
#    y -0.006350 2.037970 -0.077080 
#    z 0.195660 -0.077080 2.104080 
# 
# From -- ./inp_files/338895.got.cif
#   From: 2010.05.17/outbox.cif.g08.bks.cpg/sg2_170_cif.got.tgz:338895.got - 2010.06.03 11:33:40.
