data_PCOD9014413
_publ_section_title
;
Structure prediction by ZEFSAII (Michael W. Deem and Ramdas Pophale) SiO2 
 PCOD9014413
Probable space group: P -1
;
_chemical_formula_sum "Si O2"
_cell_formula_units_Z 16
_cell_length_a 8.112008
_cell_length_b 10.768171
_cell_length_c 20.225465
_cell_angle_alpha 33.741015
_cell_angle_beta 130.005023
_cell_angle_gamma 119.638547
_cell_volume 748.334497
_symmetry_space_group_name_H-M "P -1"
_symmetry_group_IT_number 2
_symmetry_cell_setting 'triclinic'
loop_
_space_group_symop_operation_xyz
x,y,z
-x,-y,-z
loop_
_atom_site_type_symbol
_atom_site_label
_atom_site_fract_x
_atom_site_fract_y
_atom_site_fract_z
Si Si1 0.637600 0.676872 0.423432
Si Si2 0.983816 0.887555 0.290265
Si Si3 0.808230 0.689981 0.849703
Si Si4 0.375654 0.247876 0.365411
Si Si5 0.591194 0.139786 0.154457
Si Si6 0.766533 0.480839 0.398976
Si Si7 0.932255 0.748373 0.589981
Si Si8 0.353813 0.545714 0.851730
O O1 0.500000 0.500000 0.500000
O O2 0.696205 0.578688 0.409824
O O3 0.830635 0.709668 0.509718
O O4 0.521583 0.923990 0.270509
O O5 0.900755 0.681236 0.318257
O O6 0.104352 0.755499 0.441701
O O7 0.777203 0.042133 0.195653
O O8 0.135148 0.063610 0.220771
O O9 0.784274 0.711493 0.755037
O O10 0.577915 0.624499 0.845794
O O11 0.000000 0.500000 0.000000
O O12 0.557473 0.423050 0.331667
O O13 0.248248 0.273001 0.390547
O O14 0.500000 0.000000 0.500000
O O15 0.689071 0.302018 0.161237
O O16 0.405879 0.290579 0.001631
O O17 0.149503 0.590629 0.731787
O O18 0.000000 0.000000 0.500000
#
# Coordination Sequence:
#
# PCOD9014413 Si02
#       8
#     2   2   2   2   2   2   2   2
#     4  11  23  43  69  99 136 175 230 273 340 410
#     4  10  21  41  67  97 130 173 222 274 339 396
#     4  12  25  41  68  98 135 178 228 275 332 408
#     4  12  25  42  68  99 137 170 233 282 334 401
#     4  10  22  41  67  94 137 173 222 278 334 403
#     4  10  23  41  70  95 132 180 219 282 343 391
#     4  12  25  41  68 105 133 177 226 288 333 399
#     4  11  24  40  66 100 136 178 222 279 344 386
#
# _framework density 21.380814999999998
#
# number of rings (size 3 to 8) (size 9 to 14) (size 15 to 20)
#    0.000    1.000    5.000    1.500    5.250    3.000 
#    0.000    1.250    5.500    0.000    0.000    0.000 
#    0.000    0.000    0.000    0.000    0.000    0.000 
#
# Total GULP energy -89419.555902 kJ/mol
# GULP energy per Si atom -5588.722244 kJ/mol
# Density = 2.133215 g / cm^3
# Si number density = 21.380815 Si / 1000 Ang^3
#
#
#
# Elastic Constant Matrix: (Units=GPa)
#
#
# Indices 1 2 3 4 5 6 
#
# 1 69.9759 23.1494 33.8264 -7.0622 3.8261 4.0236
# 2 23.1494 127.9331 62.7983 -3.4248 -2.9141 18.8994
# 3 33.8264 62.7983 175.6584 -15.1533 -0.6782 11.2516
# 4 -7.0622 -3.4248 -15.1533 30.5761 1.3116 -5.3627
# 5 3.8261 -2.9141 -0.6782 1.3116 28.3196 -5.2942
# 6 4.0236 18.8994 11.2516 -5.3627 -5.2942 41.8056
#
#
#
# Elastic Compliance Matrix: (Units=1/GPa)
#
#
# Indices 1 2 3 4 5 6 
#
# 1 0.016405 -0.001813 -0.002293 0.002536 -0.002603 -0.000147
# 2 -0.001813 0.010238 -0.003203 -0.001536 0.000599 -0.003713
# 3 -0.002293 -0.003203 0.007524 0.002841 0.000031 0.000012
# 4 0.002536 -0.001536 0.002841 0.035293 -0.001311 0.004047
# 5 -0.002603 0.000599 0.000031 -0.001311 0.036616 0.004440
# 6 -0.000147 -0.003713 0.000012 0.004047 0.004440 0.026691
#
#
# Mechanical properties :
#
#
# Convention : Reuss Voigt Hill
#
# Bulk Modulus (GPa) = 51.15296 68.12396 59.63846
# Shear Modulus (GPa) = 32.48807 37.05982 34.77395
#
# Velocity S-wave (km/s) = 3.90230 4.16783 4.03725
# Velocity P-wave (km/s) = 6.65437 7.42243 7.04887
#
# Compressibility (1/GPa) = 0.01954921
#
# Stress axis : x y z
#
# Youngs Moduli (GPa) = 60.95542 97.67434 132.90575
#
# Poissons Ratio (x) = 0.17705 0.30476
# Poissons Ratio (y) = 0.11049 0.42576
# Poissons Ratio (z) = 0.13977 0.31290
#
# Static dielectric constant tensor:
#      x y z
#    x 1.855260 0.035720 0.007360 
#    y 0.035720 1.793240 -0.006250 
#    z 0.007360 -0.006250 1.782780 
# 
# From -- ./inp_files/607509.got.cif
#   From: 2010.05.17/outbox.cif.g08.bks.cpg/sg2_304_cif.got.tgz:607509.got - 2010.06.03 11:33:40.
