data_PCOD9014210
_publ_section_title
;
Structure prediction by ZEFSAII (Michael W. Deem and Ramdas Pophale) SiO2 
 PCOD9014210
Probable space group: P -1
;
_chemical_formula_sum "Si O2"
_cell_formula_units_Z 14
_cell_length_a 12.883105
_cell_length_b 8.676677
_cell_length_c 8.738228
_cell_angle_alpha 49.153545
_cell_angle_beta 122.614788
_cell_angle_gamma 134.139229
_cell_volume 523.959529
_symmetry_space_group_name_H-M "P -1"
_symmetry_group_IT_number 2
_symmetry_cell_setting 'triclinic'
loop_
_space_group_symop_operation_xyz
x,y,z
-x,-y,-z
loop_
_atom_site_type_symbol
_atom_site_label
_atom_site_fract_x
_atom_site_fract_y
_atom_site_fract_z
Si Si1 0.789854 0.653219 0.626684
Si Si2 0.084646 0.077808 0.737808
Si Si3 0.938017 0.247630 0.697884
Si Si4 0.856518 0.289648 0.941907
Si Si5 0.552051 0.275403 0.032083
Si Si6 0.386758 0.204435 0.269445
Si Si7 0.422885 0.153653 0.660657
O O1 0.855584 0.707057 0.474095
O O2 0.747350 0.381690 0.802124
O O3 0.672201 0.724017 0.498024
O O4 0.926922 0.854336 0.704095
O O5 0.053953 0.171367 0.806004
O O6 0.187972 0.973771 0.868368
O O7 0.918983 0.288381 0.829264
O O8 0.000000 0.500000 0.500000
O O9 0.772038 0.032782 0.664899
O O10 0.000000 0.500000 0.000000
O O11 0.449598 0.188580 0.162971
O O12 0.636279 0.133829 0.204676
O O13 0.629848 0.565312 0.910800
O O14 0.486452 0.217432 0.844466
O O15 0.485378 0.235302 0.478455
#
# Coordination Sequence:
#
# PCOD9014210 Si02
#       7
#     2   2   2   2   2   2   2
#     4  10  21  41  67 104 142 188 236 299 370 435
#     4  10  21  42  64 101 147 185 241 288 365 447
#     4  12  24  47  70 108 149 195 243 296 379 443
#     4  10  23  42  66  94 145 192 239 290 351 446
#     4  10  26  51  79 112 143 197 262 305 380 443
#     4  11  25  51  75 109 153 195 248 320 370 442
#     4  11  23  49  81 110 146 195 253 319 375 439
#
# _framework density 26.719619999999999
#
# number of rings (size 3 to 8) (size 9 to 14) (size 15 to 20)
#    0.000    1.429    2.857    1.286    2.000    1.143 
#   20.571    0.000    0.000    0.000    0.000    0.000 
#    0.000    0.000    0.000    0.000    0.000    0.000 
#
# Total GULP energy -78122.016467 kJ/mol
# GULP energy per Si atom -5580.144033 kJ/mol
# Density = 2.665880 g / cm^3
# Si number density = 26.719620 Si / 1000 Ang^3
#
#
#
# Elastic Constant Matrix: (Units=GPa)
#
#
# Indices 1 2 3 4 5 6 
#
# 1 143.9517 72.8929 63.6949 -7.3390 12.5759 -30.3173
# 2 72.8929 107.5863 56.3524 -13.3719 1.6903 -16.9454
# 3 63.6949 56.3524 151.9772 -13.7713 10.6316 -13.2072
# 4 -7.3390 -13.3719 -13.7713 66.1873 -20.1280 1.8758
# 5 12.5759 1.6903 10.6316 -20.1280 59.0136 -17.2065
# 6 -30.3173 -16.9454 -13.2072 1.8758 -17.2065 38.6444
#
#
#
# Elastic Compliance Matrix: (Units=1/GPa)
#
#
# Indices 1 2 3 4 5 6 
#
# 1 0.012492 -0.006353 -0.002387 -0.000733 -0.000554 0.005987
# 2 -0.006353 0.015776 -0.002966 0.002711 0.002977 0.002114
# 3 -0.002387 -0.002966 0.008753 0.000692 -0.000931 -0.000630
# 4 -0.000733 0.002711 0.000692 0.017728 0.006892 0.003058
# 5 -0.000554 0.002977 -0.000931 0.006892 0.022478 0.010227
# 6 0.005987 0.002114 -0.000630 0.003058 0.010227 0.035691
#
#
# Mechanical properties :
#
#
# Convention : Reuss Voigt Hill
#
# Bulk Modulus (GPa) = 73.47983 87.71063 80.59523
# Shear Modulus (GPa) = 35.49450 46.80736 41.15093
#
# Velocity S-wave (km/s) = 3.64868 4.18999 3.92867
# Velocity P-wave (km/s) = 6.73131 7.50370 7.12798
#
# Compressibility (1/GPa) = 0.01360918
#
# Stress axis : x y z
#
# Youngs Moduli (GPa) = 80.05182 63.38866 114.24207
#
# Poissons Ratio (x) = 0.40268 0.27273
# Poissons Ratio (y) = 0.50854 0.33884
# Poissons Ratio (z) = 0.19111 0.18801
#
# Static dielectric constant tensor:
#      x y z
#    x 2.082910 0.010160 0.042690 
#    y 0.010160 1.952230 0.063430 
#    z 0.042690 0.063430 2.268780 
# 
# From -- ./inp_files/294272.got.cif
#   From: 2010.05.17/outbox.cif.g08.bks.cpg/sg2_148_cif.got.tgz:294272.got - 2010.06.03 11:33:40.
