data_PCOD9014654
_publ_section_title
;
Structure prediction by ZEFSAII (Michael W. Deem and Ramdas Pophale) SiO2 
 PCOD9014654
Probable space group: P -1
;
_chemical_formula_sum "Si O2"
_cell_formula_units_Z 16
_cell_length_a 18.248608
_cell_length_b 8.504089
_cell_length_c 16.573977
_cell_angle_alpha 143.216358
_cell_angle_beta 148.703269
_cell_angle_gamma 32.831699
_cell_volume 692.312798
_symmetry_space_group_name_H-M "P -1"
_symmetry_group_IT_number 2
_symmetry_cell_setting 'triclinic'
loop_
_space_group_symop_operation_xyz
x,y,z
-x,-y,-z
loop_
_atom_site_type_symbol
_atom_site_label
_atom_site_fract_x
_atom_site_fract_y
_atom_site_fract_z
Si Si1 0.569341 0.757697 0.109257
Si Si2 0.485177 0.264764 0.776504
Si Si3 0.318059 0.201759 0.445927
Si Si4 0.712941 0.691457 0.985108
Si Si5 0.782690 0.097568 0.879601
Si Si6 0.999877 0.707900 0.347412
Si Si7 0.041579 0.626698 0.672529
Si Si8 0.064672 0.703608 0.099089
O O1 0.523119 0.875004 0.205247
O O2 0.761734 0.527405 0.200281
O O3 0.477065 0.576950 0.922146
O O4 0.477523 0.058141 0.093000
O O5 0.346019 0.295922 0.598433
O O6 0.655046 0.083245 0.814582
O O7 0.180357 0.500042 0.392995
O O8 0.500000 0.000000 0.500000
O O9 0.244648 0.985634 0.270133
O O10 0.845910 0.785853 0.177609
O O11 0.738689 0.439932 0.971244
O O12 0.767582 0.539597 0.885579
O O13 0.955144 0.869315 0.984577
O O14 0.999041 0.510051 0.342392
O O15 0.000000 0.000000 0.500000
O O16 0.000000 0.500000 0.500000
O O17 0.959574 0.997141 0.751625
O O18 0.000000 0.500000 0.000000
#
# Coordination Sequence:
#
# PCOD9014654 Si02
#       8
#     2   2   2   2   2   2   2   2
#     4  11  24  43  69 100 145 190 235 287 360 433
#     4  10  21  41  68  96 136 179 239 280 355 412
#     4  10  22  39  68  98 131 182 233 294 346 411
#     4  12  25  42  72 104 140 189 244 296 360 428
#     4  11  21  44  68  99 140 181 240 293 355 423
#     4  12  25  43  69 103 145 182 244 295 360 422
#     4  12  28  48  72 105 147 190 239 302 357 428
#     4  12  25  45  72 102 141 192 237 291 361 431
#
# _framework density 23.110939999999999
#
# number of rings (size 3 to 8) (size 9 to 14) (size 15 to 20)
#    0.000    0.750    3.750    3.375    3.500    4.000 
#    0.000    3.750    0.000    0.000    0.000    0.000 
#    0.000    0.000    0.000    0.000    0.000    0.000 
#
# Total GULP energy -89224.715089 kJ/mol
# GULP energy per Si atom -5576.544693 kJ/mol
# Density = 2.305834 g / cm^3
# Si number density = 23.110940 Si / 1000 Ang^3
#
#
#
# Elastic Constant Matrix: (Units=GPa)
#
#
# Indices 1 2 3 4 5 6 
#
# 1 82.2477 9.5443 12.2337 2.9728 -9.2748 -0.8146
# 2 9.5443 100.8481 37.7898 -5.5957 3.1829 -4.7818
# 3 12.2337 37.7898 171.4105 -0.8700 -26.8944 -1.8641
# 4 2.9728 -5.5957 -0.8700 40.3068 0.1223 5.9166
# 5 -9.2748 3.1829 -26.8944 0.1223 30.8676 3.5395
# 6 -0.8146 -4.7818 -1.8641 5.9166 3.5395 31.1165
#
#
#
# Elastic Compliance Matrix: (Units=1/GPa)
#
#
# Indices 1 2 3 4 5 6 
#
# 1 0.012814 -0.001418 0.000024 -0.001135 0.004036 -0.000124
# 2 -0.001418 0.011528 -0.003128 0.001387 -0.004552 0.001801
# 3 0.000024 -0.003128 0.007620 -0.000177 0.007061 -0.000793
# 4 -0.001135 0.001387 -0.000177 0.025773 -0.000201 -0.004705
# 5 0.004036 -0.004552 0.007061 -0.000201 0.040779 -0.004771
# 6 -0.000124 0.001801 -0.000793 -0.004705 -0.004771 0.033801
#
#
# Mechanical properties :
#
#
# Convention : Reuss Voigt Hill
#
# Bulk Modulus (GPa) = 43.63173 52.62688 48.12930
# Shear Modulus (GPa) = 33.55732 40.12072 36.83902
#
# Velocity S-wave (km/s) = 3.81466 4.17106 3.99683
# Velocity P-wave (km/s) = 6.19051 6.78364 6.49385
#
# Compressibility (1/GPa) = 0.02291910
#
# Stress axis : x y z
#
# Youngs Moduli (GPa) = 78.03756 86.74336 131.23118
#
# Poissons Ratio (x) = 0.12302 -0.00319
# Poissons Ratio (y) = 0.11067 0.41049
# Poissons Ratio (z) = -0.00190 0.27133
#
# Static dielectric constant tensor:
#      x y z
#    x 1.980080 -0.069540 -0.003540 
#    y -0.069540 1.918240 0.044980 
#    z -0.003540 0.044980 1.944290 
# 
# From -- ./inp_files/577661.got.cif
#   From: 2010.05.17/outbox.cif.g08.bks.cpg/sg2_289_cif.got.tgz:577661.got - 2010.06.03 11:33:40.
