data_PCOD9014982
_publ_section_title
;
Structure prediction by ZEFSAII (Michael W. Deem and Ramdas Pophale) SiO2 
 PCOD9014982
Probable space group: P -1
;
_chemical_formula_sum "Si O2"
_cell_formula_units_Z 14
_cell_length_a 12.211669
_cell_length_b 23.034429
_cell_length_c 15.942791
_cell_angle_alpha 161.863945
_cell_angle_beta 154.750886
_cell_angle_gamma 34.861589
_cell_volume 569.180574
_symmetry_space_group_name_H-M "P -1"
_symmetry_group_IT_number 2
_symmetry_cell_setting 'triclinic'
loop_
_space_group_symop_operation_xyz
x,y,z
-x,-y,-z
loop_
_atom_site_type_symbol
_atom_site_label
_atom_site_fract_x
_atom_site_fract_y
_atom_site_fract_z
Si Si1 0.443220 0.592347 0.284098
Si Si2 0.923860 0.040751 0.857331
Si Si3 0.674924 0.723933 0.949162
Si Si4 0.976662 0.727285 0.335676
Si Si5 0.607501 0.269415 0.866382
Si Si6 0.572599 0.812457 0.829729
Si Si7 0.516799 0.103075 0.400307
O O1 0.636064 0.692514 0.631487
O O2 0.371576 0.766446 0.425183
O O3 0.205389 0.435509 0.952153
O O4 0.565427 0.475259 0.141465
O O5 0.827189 0.224977 0.018337
O O6 0.969413 0.928124 0.650011
O O7 0.674507 0.892946 0.528987
O O8 0.201749 0.089826 0.165858
O O9 0.500000 0.500000 0.500000
O O10 0.768205 0.816349 0.048228
O O11 0.873496 0.723527 0.163616
O O12 0.528499 0.881888 0.098289
O O13 0.273868 0.708183 0.515239
O O14 0.660406 0.221462 0.742465
O O15 0.500000 0.000000 0.000000
#
# Coordination Sequence:
#
# PCOD9014982 Si02
#       7
#     2   2   2   2   2   2   2
#     4  11  24  42  67  98 136 176 213 275 329 390
#     4  10  21  41  70  93 131 177 214 276 328 382
#     4  12  25  39  69  99 128 175 225 266 328 398
#     4  11  23  44  67  95 136 176 216 275 330 389
#     4  10  23  41  67  99 130 171 225 265 330 394
#     4  12  24  46  67  97 136 173 222 273 331 389
#     4  12  23  45  65  98 134 171 225 271 328 396
#
# _framework density 24.596764
#
# number of rings (size 3 to 8) (size 9 to 14) (size 15 to 20)
#    0.000    0.857    5.714    1.286    0.000    1.143 
#    0.000    2.857    0.000    0.000    0.000    0.000 
#    0.000    0.000    0.000    0.000    0.000    0.000 
#
# Total GULP energy -78277.567671 kJ/mol
# GULP energy per Si atom -5591.254834 kJ/mol
# Density = 2.454078 g / cm^3
# Si number density = 24.596764 Si / 1000 Ang^3
#
#
#
# Elastic Constant Matrix: (Units=GPa)
#
#
# Indices 1 2 3 4 5 6 
#
# 1 93.2226 24.5656 31.1492 2.2407 -23.4885 18.4750
# 2 24.5656 142.3075 38.5479 4.7482 0.1143 6.2845
# 3 31.1492 38.5479 75.2206 13.9333 1.2370 0.0591
# 4 2.2407 4.7482 13.9333 42.4994 -0.5738 -10.5533
# 5 -23.4885 0.1143 1.2370 -0.5738 52.6787 1.4766
# 6 18.4750 6.2845 0.0591 -10.5533 1.4766 36.5544
#
#
#
# Elastic Compliance Matrix: (Units=1/GPa)
#
#
# Indices 1 2 3 4 5 6 
#
# 1 0.016926 -0.000712 -0.006627 -0.000758 0.007947 -0.008961
# 2 -0.000712 0.008263 -0.003966 0.000164 -0.000212 -0.000999
# 3 -0.006627 -0.003966 0.019017 -0.004805 -0.003523 0.002756
# 4 -0.000758 0.000164 -0.004805 0.027164 -0.000160 0.008211
# 5 0.007947 -0.000212 -0.003523 -0.000160 0.022746 -0.004939
# 6 -0.008961 -0.000999 0.002756 0.008211 -0.004939 0.034623
#
#
# Mechanical properties :
#
#
# Convention : Reuss Voigt Hill
#
# Bulk Modulus (GPa) = 46.30622 55.47510 50.89066
# Shear Modulus (GPa) = 31.53647 40.77904 36.15776
#
# Velocity S-wave (km/s) = 3.58458 4.07615 3.83824
# Velocity P-wave (km/s) = 5.99994 6.69000 6.35435
#
# Compressibility (1/GPa) = 0.02159537
#
# Stress axis : x y z
#
# Youngs Moduli (GPa) = 59.08241 121.02206 52.58500
#
# Poissons Ratio (x) = 0.08615 0.34850
# Poissons Ratio (y) = 0.04206 0.20854
# Poissons Ratio (z) = 0.39156 0.47994
#
# Static dielectric constant tensor:
#      x y z
#    x 1.987460 0.017910 0.046270 
#    y 0.017910 1.913700 0.024360 
#    z 0.046270 0.024360 2.023500 
# 
# From -- ./inp_files/241433.got.cif
#   From: 2010.05.17/outbox.cif.g08.bks.cpg/sg2_121_cif.got.tgz:241433.got - 2010.06.03 11:33:40.
