data_PCOD9014600
_publ_section_title
;
Structure prediction by ZEFSAII (Michael W. Deem and Ramdas Pophale) SiO2 
 PCOD9014600
Probable space group: P -1
;
_chemical_formula_sum "Si O2"
_cell_formula_units_Z 16
_cell_length_a 17.199175
_cell_length_b 8.882219
_cell_length_c 9.392007
_cell_angle_alpha 97.399696
_cell_angle_beta 60.318265
_cell_angle_gamma 140.660044
_cell_volume 701.006994
_symmetry_space_group_name_H-M "P -1"
_symmetry_group_IT_number 2
_symmetry_cell_setting 'triclinic'
loop_
_space_group_symop_operation_xyz
x,y,z
-x,-y,-z
loop_
_atom_site_type_symbol
_atom_site_label
_atom_site_fract_x
_atom_site_fract_y
_atom_site_fract_z
Si Si1 0.782550 0.774643 0.107981
Si Si2 0.950839 0.303824 0.904684
Si Si3 0.770437 0.741953 0.622794
Si Si4 0.053258 0.491767 0.307046
Si Si5 0.286142 0.639519 0.538664
Si Si6 0.268272 0.117243 0.565436
Si Si7 0.489194 0.783386 0.626922
Si Si8 0.113113 0.249088 0.229890
O O1 0.764715 0.784826 0.292745
O O2 0.621316 0.454495 0.187411
O O3 0.902569 0.827668 0.927669
O O4 0.834553 0.012372 0.033180
O O5 0.875461 0.287332 0.838497
O O6 0.111280 0.448564 0.719208
O O7 0.000000 0.500000 0.000000
O O8 0.719022 0.509169 0.579255
O O9 0.681468 0.751491 0.620782
O O10 0.783068 0.731481 0.778191
O O11 0.947412 0.015865 0.435180
O O12 0.159809 0.490622 0.227231
O O13 0.000000 0.500000 0.500000
O O14 0.891310 0.202585 0.346604
O O15 0.377745 0.712586 0.606116
O O16 0.382893 0.911045 0.410663
O O17 0.401092 0.199845 0.527782
#
# Coordination Sequence:
#
# PCOD9014600 Si02
#       8
#     2   2   2   2   2   2   2   2
#     4  12  24  42  66 104 138 160 223 280 332 378
#     4  12  24  40  67 103 129 165 219 282 324 375
#     4  10  21  41  68  94 128 173 219 262 331 400
#     4  11  24  42  69  97 133 172 221 269 329 396
#     4  11  22  41  68  90 132 177 225 257 323 401
#     4  11  23  42  68  93 134 179 213 267 332 392
#     4  11  25  41  64  97 133 182 213 268 326 396
#     4  10  24  40  67 103 132 167 215 284 335 376
#
# _framework density 22.824310000000001
#
# number of rings (size 3 to 8) (size 9 to 14) (size 15 to 20)
#    0.000    1.000    5.000    1.125    5.250    2.500 
#    0.000    1.250    0.000    0.000    0.000    0.000 
#    0.000    0.000    0.000    0.000    0.000    0.000 
#
# Total GULP energy -89227.370446 kJ/mol
# GULP energy per Si atom -5576.710653 kJ/mol
# Density = 2.277236 g / cm^3
# Si number density = 22.824310 Si / 1000 Ang^3
#
#
#
# Elastic Constant Matrix: (Units=GPa)
#
#
# Indices 1 2 3 4 5 6 
#
# 1 92.1054 11.3051 17.8463 -13.7368 12.1144 -16.1626
# 2 11.3051 82.7018 21.7474 -26.7052 15.0659 -35.4316
# 3 17.8463 21.7474 53.6914 -10.0066 12.7435 -8.0181
# 4 -13.7368 -26.7052 -10.0066 49.0681 -7.4368 8.2817
# 5 12.1144 15.0659 12.7435 -7.4368 30.0439 -2.3703
# 6 -16.1626 -35.4316 -8.0181 8.2817 -2.3703 29.4978
#
#
#
# Elastic Compliance Matrix: (Units=1/GPa)
#
#
# Indices 1 2 3 4 5 6 
#
# 1 0.014555 0.007554 -0.003551 0.004115 -0.005992 0.014446
# 2 0.007554 0.037109 -0.005889 0.011955 -0.012827 0.042725
# 3 -0.003551 -0.005889 0.023074 0.000206 -0.005608 -0.003255
# 4 0.004115 0.011955 0.000206 0.026456 -0.000467 0.009206
# 5 -0.005992 -0.012827 -0.005608 -0.000467 0.043085 -0.016622
# 6 0.014446 0.042725 -0.003255 0.009206 -0.016622 0.088331
#
#
# Mechanical properties :
#
#
# Convention : Reuss Voigt Hill
#
# Bulk Modulus (GPa) = 14.09119 36.69958 25.39538
# Shear Modulus (GPa) = 19.22800 33.56195 26.39498
#
# Velocity S-wave (km/s) = 2.90562 3.83880 3.40434
# Velocity P-wave (km/s) = 4.17660 5.98018 5.15784
#
# Compressibility (1/GPa) = 0.07096633
#
# Stress axis : x y z
#
# Youngs Moduli (GPa) = 68.70545 26.94732 43.33943
#
# Poissons Ratio (x) = -0.20355 0.15389
# Poissons Ratio (y) = -0.51898 0.25521
# Poissons Ratio (z) = 0.24396 0.15868
#
# Static dielectric constant tensor:
#      x y z
#    x 1.969760 0.022710 0.027510 
#    y 0.022710 1.886230 -0.007110 
#    z 0.027510 -0.007110 1.870080 
# 
# From -- ./inp_files/329159.got.cif
#   From: 2010.05.17/outbox.cif.g08.bks.cpg/sg2_165_cif.got.tgz:329159.got - 2010.06.03 11:33:40.
