data_PCOD9014836
_publ_section_title
;
Structure prediction by ZEFSAII (Michael W. Deem and Ramdas Pophale) SiO2 
 PCOD9014836
Probable space group: P -1
;
_chemical_formula_sum "Si O2"
_cell_formula_units_Z 16
_cell_length_a 11.679576
_cell_length_b 5.719029
_cell_length_c 15.380141
_cell_angle_alpha 92.951418
_cell_angle_beta 65.854838
_cell_angle_gamma 60.097446
_cell_volume 769.125301
_symmetry_space_group_name_H-M "P -1"
_symmetry_group_IT_number 2
_symmetry_cell_setting 'triclinic'
loop_
_space_group_symop_operation_xyz
x,y,z
-x,-y,-z
loop_
_atom_site_type_symbol
_atom_site_label
_atom_site_fract_x
_atom_site_fract_y
_atom_site_fract_z
Si Si1 0.699158 0.280620 0.562518
Si Si2 0.831205 0.208233 0.095395
Si Si3 0.518360 0.532150 0.096348
Si Si4 0.440365 0.249008 0.260080
Si Si5 0.933052 0.398730 0.444817
Si Si6 0.750919 0.934028 0.714023
Si Si7 0.251934 0.208211 0.793257
Si Si8 0.665241 0.939409 0.434175
O O1 0.571296 0.591647 0.644762
O O2 0.859125 0.241654 0.501253
O O3 0.710798 0.093491 0.636937
O O4 0.658021 0.202939 0.484265
O O5 0.693721 0.393318 0.070350
O O6 0.832083 0.455406 0.153550
O O7 0.797128 0.992291 0.151463
O O8 0.000000 0.000000 0.000000
O O9 0.478598 0.353970 0.165721
O O10 0.378336 0.854078 0.172970
O O11 0.500000 0.500000 0.000000
O O12 0.276870 0.310022 0.296232
O O13 0.576514 0.925905 0.227364
O O14 0.791374 0.673695 0.448058
O O15 0.000000 0.500000 0.500000
O O16 0.071869 0.202332 0.331035
O O17 0.270910 0.143859 0.684190
O O18 0.500000 0.000000 0.500000
#
# Coordination Sequence:
#
# PCOD9014836 Si02
#       8
#     2   2   2   2   2   2   2   2
#     4  11  22  40  68  95 142 189 228 280 345 418
#     4  11  25  50  77  99 140 184 234 301 364 419
#     4  10  24  43  69 100 128 174 230 296 357 422
#     4  10  21  41  69  95 136 183 228 281 350 423
#     4  12  24  40  64  99 137 185 230 286 345 412
#     4  11  21  41  65  97 132 179 229 278 356 414
#     4  11  25  46  71 105 141 191 236 286 357 427
#     4  12  28  41  66 103 147 188 241 284 344 430
#
# _framework density 20.802851
#
# number of rings (size 3 to 8) (size 9 to 14) (size 15 to 20)
#    0.000    1.000    3.750    2.250    5.250    2.500 
#    2.250    0.000    0.000    0.000    0.000    0.000 
#    0.000    0.000    0.000    0.000    0.000    0.000 
#
# Total GULP energy -89176.839624 kJ/mol
# GULP energy per Si atom -5573.552476 kJ/mol
# Density = 2.075550 g / cm^3
# Si number density = 20.802851 Si / 1000 Ang^3
#
#
#
# Elastic Constant Matrix: (Units=GPa)
#
#
# Indices 1 2 3 4 5 6 
#
# 1 127.4015 42.2295 90.5539 4.5588 -4.7016 2.9322
# 2 42.2295 76.8761 55.2464 24.5470 2.8317 -2.4184
# 3 90.5539 55.2464 168.6312 25.9362 9.2862 3.5785
# 4 4.5588 24.5470 25.9362 35.7151 -1.8471 -4.0428
# 5 -4.7016 2.8317 9.2862 -1.8471 41.5538 5.7472
# 6 2.9322 -2.4184 3.5785 -4.0428 5.7472 35.6153
#
#
#
# Elastic Compliance Matrix: (Units=1/GPa)
#
#
# Indices 1 2 3 4 5 6 
#
# 1 0.014931 -0.005235 -0.007656 0.007394 0.004176 -0.000650
# 2 -0.005235 0.021620 -0.002237 -0.012564 -0.002271 0.001064
# 3 -0.007656 -0.002237 0.011984 -0.006473 -0.003557 -0.000886
# 4 0.007394 -0.012564 -0.006473 0.040977 0.004531 0.003109
# 5 0.004176 -0.002271 -0.003557 0.004531 0.026222 -0.003858
# 6 -0.000650 0.001064 -0.000886 0.003109 -0.003858 0.029268
#
#
# Mechanical properties :
#
#
# Convention : Reuss Voigt Hill
#
# Bulk Modulus (GPa) = 54.70783 83.21871 68.96327
# Shear Modulus (GPa) = 27.57070 34.90211 31.23641
#
# Velocity S-wave (km/s) = 3.64446 4.10049 3.87918
# Velocity P-wave (km/s) = 6.63813 7.90626 7.29979
#
# Compressibility (1/GPa) = 0.01827892
#
# Stress axis : x y z
#
# Youngs Moduli (GPa) = 66.97654 46.25316 83.44164
#
# Poissons Ratio (x) = 0.24214 0.63883
# Poissons Ratio (y) = 0.35063 0.18666
# Poissons Ratio (z) = 0.51277 0.10347
#
# Static dielectric constant tensor:
#      x y z
#    x 1.788380 0.051440 0.005140 
#    y 0.051440 1.885130 0.041870 
#    z 0.005140 0.041870 1.738320 
# 
# From -- ./inp_files/77769.got.cif
#   From: 2010.05.17/outbox.cif.g08.bks.cpg/sg2_39_cif.got.tgz:77769.got - 2010.06.03 11:33:40.
