data_PCOD9014224
_publ_section_title
;
Structure prediction by ZEFSAII (Michael W. Deem and Ramdas Pophale) SiO2 
 PCOD9014224
Probable space group: P -1
;
_chemical_formula_sum "Si O2"
_cell_formula_units_Z 15
_cell_length_a 8.110166
_cell_length_b 8.191053
_cell_length_c 10.895354
_cell_angle_alpha 93.119379
_cell_angle_beta 125.037886
_cell_angle_gamma 90.302617
_cell_volume 591.148192
_symmetry_space_group_name_H-M "P -1"
_symmetry_group_IT_number 2
_symmetry_cell_setting 'triclinic'
loop_
_space_group_symop_operation_xyz
x,y,z
-x,-y,-z
loop_
_atom_site_type_symbol
_atom_site_label
_atom_site_fract_x
_atom_site_fract_y
_atom_site_fract_z
Si Si1 0.567340 0.398681 0.643646
Si Si2 0.039348 0.376715 0.778373
Si Si3 0.500000 0.000000 0.000000
Si Si4 0.521011 0.942303 0.314888
Si Si5 0.111270 0.840034 0.502039
Si Si6 0.893053 0.922205 0.831444
Si Si7 0.810683 0.259445 0.207935
Si Si8 0.795226 0.604356 0.914775
O O1 0.500000 0.500000 0.500000
O O2 0.802789 0.371718 0.712823
O O3 0.437523 0.235631 0.617566
O O4 0.597768 0.497870 0.789680
O O5 0.031891 0.263483 0.653146
O O6 0.125365 0.562221 0.807103
O O7 0.178386 0.305309 0.940659
O O8 0.596719 0.183297 0.071910
O O9 0.519213 0.961278 0.165031
O O10 0.670691 0.083305 0.440362
O O11 0.296222 0.972323 0.266786
O O12 0.157012 0.730969 0.633984
O O13 0.000000 0.000000 0.500000
O O14 0.810494 0.742102 0.824926
O O15 0.050101 0.885734 0.790985
O O16 0.000000 0.000000 0.000000
O O17 0.000000 0.500000 0.000000
#
# Coordination Sequence:
#
# PCOD9014224 Si02
#       8
#     2   2   1   2   2   2   2   2
#     4  11  25  45  75 113 153 190 253 331 387 454
#     4  11  24  46  75 105 150 203 261 313 382 467
#     4  10  22  46  72 112 156 200 244 320 374 476
#     4  11  26  45  74 115 151 197 266 315 390 462
#     4  11  29  46  70 103 155 206 252 314 399 460
#     4  12  22  40  80 110 145 191 257 323 379 447
#     4  11  23  45  74 105 151 196 252 312 386 459
#     4  10  21  41  67 111 141 188 246 309 382 443
#
# _framework density 25.374351000000001
#
# number of rings (size 3 to 8) (size 9 to 14) (size 15 to 20)
#    0.000    1.067    4.000    2.800    7.467    0.533 
#    0.000    0.000    0.000    4.800    0.000    0.000 
#    0.000    0.000    0.000    0.000    0.000    0.000 
#
# Total GULP energy -83604.203360 kJ/mol
# GULP energy per Si atom -5573.613557 kJ/mol
# Density = 2.531660 g / cm^3
# Si number density = 25.374351 Si / 1000 Ang^3
#
#
#
# Elastic Constant Matrix: (Units=GPa)
#
#
# Indices 1 2 3 4 5 6 
#
# 1 56.1474 17.6721 33.8043 -6.5229 4.1215 0.5510
# 2 17.6721 125.1307 37.6079 6.6797 -10.4983 33.5611
# 3 33.8043 37.6079 154.7038 9.1579 -28.4939 1.2748
# 4 -6.5229 6.6797 9.1579 45.1951 -4.0776 -9.0103
# 5 4.1215 -10.4983 -28.4939 -4.0776 40.1173 -6.8715
# 6 0.5510 33.5611 1.2748 -9.0103 -6.8715 34.5440
#
#
#
# Elastic Compliance Matrix: (Units=1/GPa)
#
#
# Indices 1 2 3 4 5 6 
#
# 1 0.023322 -0.003130 -0.005824 0.005021 -0.006339 0.002932
# 2 -0.003130 0.013024 -0.002217 -0.004764 -0.000711 -0.013906
# 3 -0.005824 -0.002217 0.009662 -0.001212 0.007275 0.003021
# 4 0.005021 -0.004764 -0.001212 0.026359 0.002091 0.011884
# 5 -0.006339 -0.000711 0.007275 0.002091 0.032047 0.007443
# 6 0.002932 -0.013906 0.003021 0.011884 0.007443 0.046881
#
#
# Mechanical properties :
#
#
# Convention : Reuss Voigt Hill
#
# Bulk Modulus (GPa) = 42.25204 57.12782 49.68993
# Shear Modulus (GPa) = 27.54447 40.43114 33.98781
#
# Velocity S-wave (km/s) = 3.29830 3.99605 3.66383
# Velocity P-wave (km/s) = 5.58504 6.62225 6.12564
#
# Compressibility (1/GPa) = 0.02366749
#
# Stress axis : x y z
#
# Youngs Moduli (GPa) = 42.87853 76.78039 103.49517
#
# Poissons Ratio (x) = 0.24029 0.60277
# Poissons Ratio (y) = 0.13419 0.22940
# Poissons Ratio (z) = 0.24973 0.17019
#
# Static dielectric constant tensor:
#      x y z
#    x 2.329030 -0.210200 -0.088200 
#    y -0.210200 2.188580 0.003560 
#    z -0.088200 0.003560 2.044690 
# 
# From -- ./inp_files/379347.got.cif
#   From: 2010.05.17/outbox.cif.g08.bks.cpg/sg2_190_cif.got.tgz:379347.got - 2010.06.03 11:33:40.
