data_PCOD9014328
_publ_section_title
;
Structure prediction by ZEFSAII (Michael W. Deem and Ramdas Pophale) SiO2 
 PCOD9014328
Probable space group: P -1
;
_chemical_formula_sum "Si O2"
_cell_formula_units_Z 16
_cell_length_a 8.108566
_cell_length_b 17.241771
_cell_length_c 8.312629
_cell_angle_alpha 60.541175
_cell_angle_beta 80.298310
_cell_angle_gamma 41.456293
_cell_volume 628.285454
_symmetry_space_group_name_H-M "P -1"
_symmetry_group_IT_number 2
_symmetry_cell_setting 'triclinic'
loop_
_space_group_symop_operation_xyz
x,y,z
-x,-y,-z
loop_
_atom_site_type_symbol
_atom_site_label
_atom_site_fract_x
_atom_site_fract_y
_atom_site_fract_z
Si Si1 0.106140 0.130772 0.023141
Si Si2 0.189590 0.367110 0.984647
Si Si3 0.937827 0.138429 0.704800
Si Si4 0.527132 0.090431 0.348126
Si Si5 0.537868 0.424472 0.329592
Si Si6 0.528117 0.160806 0.620523
Si Si7 0.412718 0.662334 0.941387
Si Si8 0.975796 0.634950 0.316544
O O1 0.102711 0.233651 0.864086
O O2 0.980829 0.128497 0.897050
O O3 0.904028 0.204864 0.129517
O O4 0.381100 0.971950 0.185983
O O5 0.255456 0.240117 0.162680
O O6 0.465495 0.304305 0.023126
O O7 0.095502 0.399902 0.784788
O O8 0.000000 0.500000 0.000000
O O9 0.809953 0.283451 0.511613
O O10 0.723743 0.152827 0.673211
O O11 0.222528 0.006088 0.712171
O O12 0.571607 0.133497 0.452686
O O13 0.500000 0.000000 0.500000
O O14 0.514873 0.534094 0.155343
O O15 0.294081 0.505324 0.407996
O O16 0.503615 0.382308 0.212415
O O17 0.222308 0.304120 0.568330
#
# Coordination Sequence:
#
# PCOD9014328 Si02
#       8
#     2   2   2   2   2   2   2   2
#     4  11  23  43  68  97 132 182 220 281 337 400
#     4  12  24  43  70 100 135 176 225 275 336 400
#     4  12  25  44  69  97 137 173 233 274 339 397
#     4  12  27  45  71 104 135 176 225 282 337 403
#     4  10  23  42  65  97 132 182 217 278 328 403
#     4  12  24  43  70  98 137 174 226 280 338 396
#     4  10  21  41  67  94 133 175 226 267 341 394
#     4  11  24  43  65  98 137 176 224 272 337 399
#
# _framework density 25.46613
#
# number of rings (size 3 to 8) (size 9 to 14) (size 15 to 20)
#    0.000    0.750    1.250    6.375    1.750    2.500 
#    2.250    0.000    0.000    0.000    0.000    0.000 
#    0.000    0.000    0.000    0.000    0.000    0.000 
#
# Total GULP energy -89744.179012 kJ/mol
# GULP energy per Si atom -5609.011188 kJ/mol
# Density = 2.540817 g / cm^3
# Si number density = 25.466130 Si / 1000 Ang^3
#
#
#
# Elastic Constant Matrix: (Units=GPa)
#
#
# Indices 1 2 3 4 5 6 
#
# 1 72.6755 26.8057 -9.6395 7.6360 -8.6939 8.8612
# 2 26.8057 167.9158 33.2946 -9.1861 -6.8449 -20.0677
# 3 -9.6395 33.2946 76.1933 -27.1778 5.3139 4.4475
# 4 7.6360 -9.1861 -27.1778 43.0024 7.2544 1.8938
# 5 -8.6939 -6.8449 5.3139 7.2544 31.7354 4.3053
# 6 8.8612 -20.0677 4.4475 1.8938 4.3053 41.6979
#
#
#
# Elastic Compliance Matrix: (Units=1/GPa)
#
#
# Indices 1 2 3 4 5 6 
#
# 1 0.017283 -0.004078 0.003117 -0.002494 0.004764 -0.006346
# 2 -0.004078 0.008173 -0.004803 -0.000958 0.000956 0.005257
# 3 0.003117 -0.004803 0.020925 0.012873 -0.005926 -0.005178
# 4 -0.002494 -0.000958 0.012873 0.033470 -0.010460 -0.001744
# 5 0.004764 0.000956 -0.005926 -0.010460 0.036846 -0.003250
# 6 -0.006346 0.005257 -0.005178 -0.001744 -0.003250 0.028828
#
#
# Mechanical properties :
#
#
# Convention : Reuss Voigt Hill
#
# Bulk Modulus (GPa) = 28.69114 46.41180 37.55147
# Shear Modulus (GPa) = 29.64358 41.04207 35.34282
#
# Velocity S-wave (km/s) = 3.41550 4.01887 3.72941
# Velocity P-wave (km/s) = 5.18122 6.30869 5.77255
#
# Compressibility (1/GPa) = 0.03485397
#
# Stress axis : x y z
#
# Youngs Moduli (GPa) = 57.86006 122.34703 47.79024
#
# Poissons Ratio (x) = 0.49890 -0.14895
# Poissons Ratio (y) = 0.23594 0.22952
# Poissons Ratio (z) = -0.18034 0.58760
#
# Static dielectric constant tensor:
#      x y z
#    x 2.027990 0.005790 -0.020510 
#    y 0.005790 1.978130 -0.055220 
#    z -0.020510 -0.055220 2.028830 
# 
# From -- ./inp_files/217004.got.cif
#   From: 2010.05.17/outbox.cif.g08.bks.cpg/sg2_109_cif.got.tgz:217004.got - 2010.06.03 11:33:40.
