data_PCOD9014088
_publ_section_title
;
Structure prediction by ZEFSAII (Michael W. Deem and Ramdas Pophale) SiO2 
 PCOD9014088
Probable space group: P -1
;
_chemical_formula_sum "Si O2"
_cell_formula_units_Z 14
_cell_length_a 11.096925
_cell_length_b 8.532269
_cell_length_c 8.368362
_cell_angle_alpha 131.761421
_cell_angle_beta 120.576352
_cell_angle_gamma 68.979905
_cell_volume 508.596144
_symmetry_space_group_name_H-M "P -1"
_symmetry_group_IT_number 2
_symmetry_cell_setting 'triclinic'
loop_
_space_group_symop_operation_xyz
x,y,z
-x,-y,-z
loop_
_atom_site_type_symbol
_atom_site_label
_atom_site_fract_x
_atom_site_fract_y
_atom_site_fract_z
Si Si1 0.207392 0.668325 0.386654
Si Si2 0.246462 0.216001 0.164530
Si Si3 0.486138 0.728445 0.439886
Si Si4 0.154676 0.385879 0.695919
Si Si5 0.000000 0.500000 0.000000
Si Si6 0.500000 0.000000 0.000000
Si Si7 0.103475 0.805191 0.751254
Si Si8 0.531736 0.771841 0.162959
O O1 0.155942 0.420948 0.185575
O O2 0.368096 0.652008 0.429480
O O3 0.176353 0.778890 0.606311
O O4 0.102126 0.728678 0.217234
O O5 0.350331 0.307503 0.431476
O O6 0.359440 0.128457 0.053277
O O7 0.149494 0.024184 0.004326
O O8 0.459700 0.669438 0.198873
O O9 0.467288 0.978103 0.624988
O O10 0.156306 0.610752 0.763091
O O11 0.307850 0.294314 0.767962
O O12 0.080175 0.403665 0.826967
O O13 0.058997 0.239670 0.421306
O O14 0.466428 0.794948 0.959989
#
# Coordination Sequence:
#
# PCOD9014088 Si02
#       8
#     2   2   2   2   1   1   2   2
#     4  11  23  43  66  98 140 181 227 287 345 410
#     4  11  22  41  66  97 136 182 225 283 347 406
#     4  10  23  40  65 102 138 177 231 282 345 427
#     4  10  22  44  68  99 140 183 228 291 347 408
#     4  10  24  40  62  94 130 180 238 280 338 410
#     4  10  22  38  60  96 132 174 232 276 336 418
#     4  10  23  43  70 102 138 181 237 280 341 428
#     4  10  21  41  66  96 136 180 225 286 349 405
#
# _framework density 27.526752999999999
#
# number of rings (size 3 to 8) (size 9 to 14) (size 15 to 20)
#    0.000    1.714    0.000    3.857    0.000    5.714 
#    0.000   19.286    0.000    0.000    0.000    3.000 
#    0.000    0.000    0.000    0.000    0.000    0.000 
#
# Total GULP energy -77973.405371 kJ/mol
# GULP energy per Si atom -5569.528955 kJ/mol
# Density = 2.746410 g / cm^3
# Si number density = 27.526753 Si / 1000 Ang^3
#
#
#
# Elastic Constant Matrix: (Units=GPa)
#
#
# Indices 1 2 3 4 5 6 
#
# 1 118.1310 32.0420 34.9516 -9.9343 8.2367 -8.9919
# 2 32.0420 108.4718 23.1645 -14.3033 19.2217 -3.1702
# 3 34.9516 23.1645 127.5012 -20.9401 24.2266 20.4257
# 4 -9.9343 -14.3033 -20.9401 29.3955 -6.5708 9.3266
# 5 8.2367 19.2217 24.2266 -6.5708 38.0384 2.4421
# 6 -8.9919 -3.1702 20.4257 9.3266 2.4421 46.6006
#
#
#
# Elastic Compliance Matrix: (Units=1/GPa)
#
#
# Indices 1 2 3 4 5 6 
#
# 1 0.010203 -0.002484 -0.003160 -0.000916 0.000687 0.003332
# 2 -0.002484 0.011218 0.000195 0.003841 -0.004570 -0.000331
# 3 -0.003160 0.000195 0.012369 0.009065 -0.005241 -0.007558
# 4 -0.000916 0.003841 0.009065 0.046557 0.001379 -0.013279
# 5 0.000687 -0.004570 -0.005241 0.001379 0.032016 0.000165
# 6 0.003332 -0.000331 -0.007558 -0.013279 0.000165 0.028041
#
#
# Mechanical properties :
#
#
# Convention : Reuss Voigt Hill
#
# Bulk Modulus (GPa) = 43.68375 59.38002 51.53189
# Shear Modulus (GPa) = 31.45999 40.40328 35.93164
#
# Velocity S-wave (km/s) = 3.38433 3.83532 3.61686
# Velocity P-wave (km/s) = 5.58351 6.42118 6.01694
#
# Compressibility (1/GPa) = 0.02289181
#
# Stress axis : x y z
#
# Youngs Moduli (GPa) = 98.01318 89.14428 80.84560
#
# Poissons Ratio (x) = 0.22143 0.25549
# Poissons Ratio (y) = 0.24346 -0.01578
# Poissons Ratio (z) = 0.30974 -0.01740
#
# Static dielectric constant tensor:
#      x y z
#    x 2.191270 0.087730 0.061870 
#    y 0.087730 2.350720 -0.153090 
#    z 0.061870 -0.153090 2.436450 
# 
# From -- ./inp_files/246191.got.cif
#   From: 2010.05.17/outbox.cif.g08.bks.cpg/sg2_124_cif.got.tgz:246191.got - 2010.06.03 11:33:40.
