data_PCOD9014753
_publ_section_title
;
Structure prediction by ZEFSAII (Michael W. Deem and Ramdas Pophale) SiO2 
 PCOD9014753
Probable space group: P -1
;
_chemical_formula_sum "Si O2"
_cell_formula_units_Z 15
_cell_length_a 10.781398
_cell_length_b 12.548797
_cell_length_c 8.180960
_cell_angle_alpha 118.806743
_cell_angle_beta 125.274844
_cell_angle_gamma 40.603020
_cell_volume 586.115549
_symmetry_space_group_name_H-M "P -1"
_symmetry_group_IT_number 2
_symmetry_cell_setting 'triclinic'
loop_
_space_group_symop_operation_xyz
x,y,z
-x,-y,-z
loop_
_atom_site_type_symbol
_atom_site_label
_atom_site_fract_x
_atom_site_fract_y
_atom_site_fract_z
Si Si1 0.000000 0.000000 0.500000
Si Si2 0.333235 0.739132 0.157098
Si Si3 0.241209 0.978815 0.990724
Si Si4 0.611023 0.684366 0.550360
Si Si5 0.249269 0.513308 0.911476
Si Si6 0.156945 0.244186 0.364618
Si Si7 0.969720 0.294404 0.600467
Si Si8 0.319788 0.258328 0.004170
O O1 0.115159 0.999924 0.753642
O O2 0.076220 0.819960 0.478158
O O3 0.378757 0.771112 0.393492
O O4 0.231913 0.664277 0.048792
O O5 0.234368 0.874238 0.043224
O O6 0.561347 0.594770 0.149501
O O7 0.470993 0.887645 0.036202
O O8 0.187390 0.123676 0.166528
O O9 0.665250 0.752799 0.500926
O O10 0.630875 0.752110 0.777823
O O11 0.767396 0.486658 0.551112
O O12 0.279496 0.415016 0.018616
O O13 0.044872 0.576428 0.717942
O O14 0.105166 0.220290 0.483171
O O15 0.123128 0.280361 0.833729
#
# Coordination Sequence:
#
# PCOD9014753 Si02
#       8
#     1   2   2   2   2   2   2   2
#     4  12  30  48  72 106 158 180 234 294 390 418
#     4  10  23  44  71 105 146 184 248 286 362 421
#     4  11  28  49  70 109 147 196 232 304 360 439
#     4  12  25  44  77 111 139 193 245 303 352 429
#     4  10  21  41  69 103 139 190 233 304 342 432
#     4  12  24  45  78 104 144 190 250 289 360 422
#     4  12  26  48  74 110 142 195 238 303 355 438
#     4  11  26  46  73 104 152 184 244 297 365 420
#
# _framework density 25.592223000000001
#
# number of rings (size 3 to 8) (size 9 to 14) (size 15 to 20)
#    0.000    0.800    2.667    4.000    5.600    9.067 
#    0.000    0.000    0.000    0.000    0.000    0.000 
#    0.000    0.000    0.000    0.000    0.000    0.000 
#
# Total GULP energy -83781.129377 kJ/mol
# GULP energy per Si atom -5585.408625 kJ/mol
# Density = 2.553397 g / cm^3
# Si number density = 25.592223 Si / 1000 Ang^3
#
#
#
# Elastic Constant Matrix: (Units=GPa)
#
#
# Indices 1 2 3 4 5 6 
#
# 1 45.8933 21.4790 21.5087 15.6897 6.5105 3.9811
# 2 21.4790 82.2191 31.8191 16.1734 -0.3353 12.2561
# 3 21.5087 31.8191 140.0550 -1.1871 -5.8259 14.3908
# 4 15.6897 16.1734 -1.1871 35.4292 2.9869 7.8295
# 5 6.5105 -0.3353 -5.8259 2.9869 41.8525 -0.1428
# 6 3.9811 12.2561 14.3908 7.8295 -0.1428 35.7472
#
#
#
# Elastic Compliance Matrix: (Units=1/GPa)
#
#
# Indices 1 2 3 4 5 6 
#
# 1 0.030203 -0.004346 -0.004177 -0.011673 -0.004474 0.002347
# 2 -0.004346 0.015665 -0.002613 -0.004763 0.000768 -0.002789
# 3 -0.004177 -0.002613 0.008783 0.003872 0.001565 -0.003016
# 4 -0.011673 -0.004763 0.003872 0.037228 -0.000363 -0.006781
# 5 -0.004474 0.000768 0.001565 -0.000363 0.024839 -0.000216
# 6 0.002347 -0.002789 -0.003016 -0.006781 -0.000216 0.031368
#
#
# Mechanical properties :
#
#
# Convention : Reuss Voigt Hill
#
# Bulk Modulus (GPa) = 30.88457 46.42012 38.65234
# Shear Modulus (GPa) = 27.60138 35.49647 31.54893
#
# Velocity S-wave (km/s) = 3.28763 3.72829 3.51487
# Velocity P-wave (km/s) = 5.14834 6.05898 5.62213
#
# Compressibility (1/GPa) = 0.03237863
#
# Stress axis : x y z
#
# Youngs Moduli (GPa) = 33.10934 63.83668 113.85406
#
# Poissons Ratio (x) = 0.27740 0.47560
# Poissons Ratio (y) = 0.14388 0.29755
# Poissons Ratio (z) = 0.13831 0.16684
#
# Static dielectric constant tensor:
#      x y z
#    x 2.030710 -0.072220 -0.080000 
#    y -0.072220 2.009600 0.093160 
#    z -0.080000 0.093160 1.959140 
# 
# From -- ./inp_files/263133.got.cif
#   From: 2010.05.17/outbox.cif.g08.bks.cpg/sg2_132_cif.got.tgz:263133.got - 2010.06.03 11:33:40.
