data_PCOD9014244
_publ_section_title
;
Structure prediction by ZEFSAII (Michael W. Deem and Ramdas Pophale) SiO2 
 PCOD9014244
Probable space group: P -1
;
_chemical_formula_sum "Si O2"
_cell_formula_units_Z 16
_cell_length_a 7.462214
_cell_length_b 14.404730
_cell_length_c 8.727861
_cell_angle_alpha 72.805904
_cell_angle_beta 75.958790
_cell_angle_gamma 123.693139
_cell_volume 640.732000
_symmetry_space_group_name_H-M "P -1"
_symmetry_group_IT_number 2
_symmetry_cell_setting 'triclinic'
loop_
_space_group_symop_operation_xyz
x,y,z
-x,-y,-z
loop_
_atom_site_type_symbol
_atom_site_label
_atom_site_fract_x
_atom_site_fract_y
_atom_site_fract_z
Si Si1 0.793047 0.106856 0.434970
Si Si2 0.039224 0.971903 0.798499
Si Si3 0.794703 0.286690 0.146381
Si Si4 0.326018 0.555228 0.878514
Si Si5 0.634526 0.483298 0.752010
Si Si6 0.116500 0.738651 0.376409
Si Si7 0.281312 0.885684 0.992515
Si Si8 0.614296 0.787318 0.205333
O O1 0.931667 0.062115 0.360083
O O2 0.892051 0.239595 0.265322
O O3 0.829501 0.148930 0.581497
O O4 0.500000 0.000000 0.500000
O O5 0.198362 0.123360 0.735679
O O6 0.174497 0.934300 0.888841
O O7 0.768400 0.878997 0.978320
O O8 0.642019 0.321009 0.232792
O O9 0.641496 0.172782 0.109134
O O10 0.044151 0.423052 0.958548
O O11 0.511030 0.544922 0.769652
O O12 0.347659 0.554152 0.060383
O O13 0.471418 0.351495 0.749030
O O14 0.898501 0.595707 0.561164
O O15 0.071404 0.764605 0.204586
O O16 0.365968 0.761958 0.299780
O O17 0.500000 0.000000 0.000000
#
# Coordination Sequence:
#
# PCOD9014244 Si02
#       8
#     2   2   2   2   2   2   2   2
#     4  11  20  41  65  94 126 163 211 268 313 378
#     4  10  23  41  68  91 125 175 215 250 321 394
#     4  10  21  41  67  89 126 173 214 250 319 395
#     4  10  22  41  64  92 125 174 211 256 322 383
#     4  11  23  40  64  95 133 164 212 272 319 373
#     4  12  23  40  64 100 126 164 214 269 322 368
#     4  11  21  41  63  93 128 168 206 262 323 381
#     4  11  22  41  64  94 126 170 215 255 319 386
#
# _framework density 24.971439
#
# number of rings (size 3 to 8) (size 9 to 14) (size 15 to 20)
#    0.000    1.250    3.750    3.375    1.750    0.000 
#    2.250    1.250    0.000    4.500    0.000    0.000 
#    0.000    0.000    0.000    0.000    0.000    0.000 
#
# Total GULP energy -89566.908395 kJ/mol
# GULP energy per Si atom -5597.931775 kJ/mol
# Density = 2.491460 g / cm^3
# Si number density = 24.971439 Si / 1000 Ang^3
#
#
#
# Elastic Constant Matrix: (Units=GPa)
#
#
# Indices 1 2 3 4 5 6 
#
# 1 93.4089 39.1081 18.5664 6.0777 -22.9900 -15.2322
# 2 39.1081 174.2455 46.4003 3.4173 -10.2433 -25.5783
# 3 18.5664 46.4003 90.9440 2.5328 -31.5228 -9.9997
# 4 6.0777 3.4173 2.5328 35.9588 4.6249 -12.1256
# 5 -22.9900 -10.2433 -31.5228 4.6249 42.3018 5.4726
# 6 -15.2322 -25.5783 -9.9997 -12.1256 5.4726 32.2375
#
#
#
# Elastic Compliance Matrix: (Units=1/GPa)
#
#
# Indices 1 2 3 4 5 6 
#
# 1 0.014114 -0.002683 0.001696 -0.002362 0.008182 0.002789
# 2 -0.002683 0.007984 -0.004272 0.002211 -0.003621 0.005188
# 3 0.001696 -0.004272 0.017462 -0.003011 0.013301 -0.000562
# 4 -0.002362 0.002211 -0.003011 0.034007 -0.008513 0.013940
# 5 0.008182 -0.003621 0.013301 -0.008513 0.038653 -0.004645
# 6 0.002789 0.005188 -0.000562 0.013940 -0.004645 0.042312
#
#
# Mechanical properties :
#
#
# Convention : Reuss Voigt Hill
#
# Bulk Modulus (GPa) = 34.43281 62.97200 48.70241
# Shear Modulus (GPa) = 28.61554 39.06786 33.84170
#
# Velocity S-wave (km/s) = 3.38883 3.95967 3.68532
# Velocity P-wave (km/s) = 5.39732 6.79542 6.13632
#
# Compressibility (1/GPa) = 0.02904207
#
# Stress axis : x y z
#
# Youngs Moduli (GPa) = 70.85172 125.24778 57.26791
#
# Poissons Ratio (x) = 0.33599 -0.09712
# Poissons Ratio (y) = 0.19007 0.24466
# Poissons Ratio (z) = -0.12015 0.53508
#
# Static dielectric constant tensor:
#      x y z
#    x 2.002090 -0.011090 0.006480 
#    y -0.011090 1.980310 0.001460 
#    z 0.006480 0.001460 2.022610 
# 
# From -- ./inp_files/206876.got.cif
#   From: 2010.05.17/outbox.cif.g08.bks.cpg/sg2_104_cif.got.tgz:206876.got - 2010.06.03 11:33:40.
