data_PCOD9014180
_publ_section_title
;
Structure prediction by ZEFSAII (Michael W. Deem and Ramdas Pophale) SiO2 
 PCOD9014180
Probable space group: P -1
;
_chemical_formula_sum "Si O2"
_cell_formula_units_Z 13
_cell_length_a 8.184332
_cell_length_b 5.363089
_cell_length_c 11.777624
_cell_angle_alpha 78.540665
_cell_angle_beta 98.573492
_cell_angle_gamma 91.724605
_cell_volume 500.992031
_symmetry_space_group_name_H-M "P -1"
_symmetry_group_IT_number 2
_symmetry_cell_setting 'triclinic'
loop_
_space_group_symop_operation_xyz
x,y,z
-x,-y,-z
loop_
_atom_site_type_symbol
_atom_site_label
_atom_site_fract_x
_atom_site_fract_y
_atom_site_fract_z
Si Si1 0.624283 0.219132 0.962412
Si Si2 0.850975 0.862941 0.938874
Si Si3 0.000000 0.000000 0.500000
Si Si4 0.647934 0.248666 0.609809
Si Si5 0.689256 0.503111 0.141217
Si Si6 0.732028 0.596500 0.398397
Si Si7 0.177462 0.273881 0.297423
O O1 0.510971 0.452459 0.888295
O O2 0.729988 0.101536 0.884173
O O3 0.715587 0.255259 0.089397
O O4 0.500000 0.000000 0.000000
O O5 0.875428 0.707442 0.841057
O O6 0.774732 0.695602 0.045776
O O7 0.000000 0.000000 0.000000
O O8 0.126920 0.213730 0.559580
O O9 0.967839 0.840881 0.630004
O O10 0.727904 0.320448 0.487081
O O11 0.451388 0.293651 0.598897
O O12 0.687916 0.954346 0.659582
O O13 0.743469 0.467892 0.670763
O O14 0.742699 0.545725 0.270217
#
# Coordination Sequence:
#
# PCOD9014180 Si02
#       7
#     2   2   1   2   2   2   2
#     4   9  21  39  63  99 134 177 225 277 342 409
#     4  11  24  41  64 100 137 182 223 283 353 415
#     4  10  24  46  66  98 136 178 230 282 356 400
#     4  10  25  46  72 103 134 187 238 288 343 409
#     4  10  21  41  67 101 132 177 229 280 347 409
#     4  10  22  43  71 103 137 181 233 292 345 421
#     4  11  25  47  72  99 142 183 236 289 345 421
#
# _framework density 25.948519000000001
#
# number of rings (size 3 to 8) (size 9 to 14) (size 15 to 20)
#    0.000    1.846    0.000    1.846    8.615    8.615 
#   16.615    0.000    0.000    0.000    0.000    0.000 
#    0.000    0.000    0.000    0.000    0.000    0.000 
#
# Total GULP energy -72443.715260 kJ/mol
# GULP energy per Si atom -5572.593482 kJ/mol
# Density = 2.588946 g / cm^3
# Si number density = 25.948519 Si / 1000 Ang^3
#
#
#
# Elastic Constant Matrix: (Units=GPa)
#
#
# Indices 1 2 3 4 5 6 
#
# 1 59.5013 18.1141 19.6325 2.6274 -5.0639 24.2116
# 2 18.1141 118.5353 52.5544 12.6668 -2.6839 21.4529
# 3 19.6325 52.5544 232.4959 27.0894 -34.4617 23.9428
# 4 2.6274 12.6668 27.0894 48.3835 3.9929 2.4690
# 5 -5.0639 -2.6839 -34.4617 3.9929 30.3161 0.1842
# 6 24.2116 21.4529 23.9428 2.4690 0.1842 42.1767
#
#
#
# Elastic Compliance Matrix: (Units=1/GPa)
#
#
# Indices 1 2 3 4 5 6 
#
# 1 0.022535 -0.001158 0.000384 -0.000850 0.004286 -0.012534
# 2 -0.001158 0.010166 -0.001895 -0.001263 -0.001261 -0.003351
# 3 0.000384 -0.001895 0.006591 -0.003723 0.007896 -0.002815
# 4 -0.000850 -0.001263 -0.003723 0.023661 -0.007614 0.001892
# 5 0.004286 -0.001261 0.007896 -0.007614 0.043606 -0.006047
# 6 -0.012534 -0.003351 -0.002815 0.001892 -0.006047 0.034123
#
#
# Mechanical properties :
#
#
# Convention : Reuss Voigt Hill
#
# Bulk Modulus (GPa) = 29.45078 65.68162 47.56620
# Shear Modulus (GPa) = 31.77878 45.52403 38.65140
#
# Velocity S-wave (km/s) = 3.50335 4.19310 3.86365
# Velocity P-wave (km/s) = 5.26678 6.98641 6.18664
#
# Compressibility (1/GPa) = 0.03395496
#
# Stress axis : x y z
#
# Youngs Moduli (GPa) = 44.37614 98.36462 151.71835
#
# Poissons Ratio (x) = 0.11386 -0.05824
# Poissons Ratio (y) = 0.05137 0.28749
# Poissons Ratio (z) = -0.01703 0.18639
#
# Static dielectric constant tensor:
#      x y z
#    x 2.651170 -0.090830 0.120090 
#    y -0.090830 2.002660 -0.061110 
#    z 0.120090 -0.061110 2.124180 
# 
# From -- ./inp_files/59166.got.cif
#   From: 2010.05.17/outbox.cif.g08.bks.cpg/sg2_30_cif.got.tgz:59166.got - 2010.06.03 11:33:40.
