data_PCOD9014548
_publ_section_title
;
Structure prediction by ZEFSAII (Michael W. Deem and Ramdas Pophale) SiO2 
 PCOD9014548
Probable space group: P -1
;
_chemical_formula_sum "Si O2"
_cell_formula_units_Z 16
_cell_length_a 18.526198
_cell_length_b 9.247391
_cell_length_c 21.489564
_cell_angle_alpha 36.254942
_cell_angle_beta 161.684558
_cell_angle_gamma 144.890300
_cell_volume 656.303101
_symmetry_space_group_name_H-M "P -1"
_symmetry_group_IT_number 2
_symmetry_cell_setting 'triclinic'
loop_
_space_group_symop_operation_xyz
x,y,z
-x,-y,-z
loop_
_atom_site_type_symbol
_atom_site_label
_atom_site_fract_x
_atom_site_fract_y
_atom_site_fract_z
Si Si1 0.676294 0.026132 0.367858
Si Si2 0.764153 0.111792 0.033952
Si Si3 0.063765 0.100811 0.174758
Si Si4 0.473370 0.766338 0.415020
Si Si5 0.811193 0.541833 0.604626
Si Si6 0.665292 0.593608 0.823211
Si Si7 0.683585 0.565829 0.185710
Si Si8 0.745305 0.615203 0.016975
O O1 0.796698 0.328702 0.363244
O O2 0.510247 0.939892 0.323435
O O3 0.815198 0.815435 0.541949
O O4 0.494886 0.984084 0.176235
O O5 0.941997 0.234556 0.080662
O O6 0.833343 0.859773 0.199157
O O7 0.733657 0.328057 0.979669
O O8 0.304945 0.089972 0.409895
O O9 0.148891 0.244626 0.130616
O O10 0.876768 0.835991 0.095886
O O11 0.500000 0.500000 0.500000
O O12 0.258878 0.664325 0.324422
O O13 0.592731 0.463107 0.402663
O O14 0.056184 0.535517 0.775970
O O15 0.693665 0.716375 0.871760
O O16 0.500000 0.500000 0.000000
O O17 0.508031 0.544305 0.108260
#
# Coordination Sequence:
#
# PCOD9014548 Si02
#       8
#     2   2   2   2   2   2   2   2
#     4   9  18  38  65  90 125 176 213 262 322 381
#     4  10  21  41  68  89 129 175 225 267 311 394
#     4  11  22  39  65 100 130 169 218 263 329 404
#     4   9  20  36  62  95 136 167 208 273 324 390
#     4   9  22  40  60 100 138 164 213 273 330 391
#     4  10  24  40  65  99 136 168 214 273 339 385
#     4  10  21  43  67  89 130 175 227 268 317 386
#     4  12  24  39  70  97 134 175 213 271 340 378
#
# _framework density 24.378979000000001
#
# number of rings (size 3 to 8) (size 9 to 14) (size 15 to 20)
#    0.000    2.000    2.500    1.500    5.250    4.500 
#    0.000    6.250    5.500    0.000    0.000    0.000 
#    0.000    0.000    0.000    0.000    0.000    0.000 
#
# Total GULP energy -89390.005775 kJ/mol
# GULP energy per Si atom -5586.875361 kJ/mol
# Density = 2.432349 g / cm^3
# Si number density = 24.378979 Si / 1000 Ang^3
#
#
#
# Elastic Constant Matrix: (Units=GPa)
#
#
# Indices 1 2 3 4 5 6 
#
# 1 80.5897 15.4230 12.5159 0.6411 0.2616 -9.6924
# 2 15.4230 85.7156 22.3366 -0.0911 -18.5281 -1.2577
# 3 12.5159 22.3366 71.0202 -8.0146 -9.2662 -15.8591
# 4 0.6411 -0.0911 -8.0146 37.9340 -2.9307 -6.5568
# 5 0.2616 -18.5281 -9.2662 -2.9307 34.5803 -3.2005
# 6 -9.6924 -1.2577 -15.8591 -6.5568 -3.2005 29.6722
#
#
#
# Elastic Compliance Matrix: (Units=1/GPa)
#
#
# Indices 1 2 3 4 5 6 
#
# 1 0.013461 -0.002399 -0.000957 0.000098 -0.001296 0.003665
# 2 -0.002399 0.014455 -0.003648 -0.000445 0.006608 -0.001506
# 3 -0.000957 -0.003648 0.019434 0.006550 0.004917 0.011897
# 4 0.000098 -0.000445 0.006550 0.029979 0.005045 0.010683
# 5 -0.001296 0.006608 0.004917 0.005045 0.034895 0.007363
# 6 0.003665 -0.001506 0.011897 0.010683 0.007363 0.044349
#
#
# Mechanical properties :
#
#
# Convention : Reuss Voigt Hill
#
# Bulk Modulus (GPa) = 29.99288 37.54184 33.76736
# Shear Modulus (GPa) = 27.51896 32.90730 30.21313
#
# Velocity S-wave (km/s) = 3.36340 3.67798 3.52420
# Velocity P-wave (km/s) = 5.23572 5.78527 5.51735
#
# Compressibility (1/GPa) = 0.03334125
#
# Stress axis : x y z
#
# Youngs Moduli (GPa) = 74.29130 69.18254 51.45686
#
# Poissons Ratio (x) = 0.16596 0.04926
# Poissons Ratio (y) = 0.17821 0.18770
# Poissons Ratio (z) = 0.07112 0.25236
#
# Static dielectric constant tensor:
#      x y z
#    x 1.901170 0.011980 -0.016820 
#    y 0.011980 1.951390 -0.036630 
#    z -0.016820 -0.036630 2.012280 
# 
# From -- ./inp_files/400127.got.cif
#   From: 2010.05.17/outbox.cif.g08.bks.cpg/sg2_201_cif.got.tgz:400127.got - 2010.06.03 11:33:40.
