data_PCOD9014497
_publ_section_title
;
Structure prediction by ZEFSAII (Michael W. Deem and Ramdas Pophale) SiO2 
 PCOD9014497
Probable space group: P -1
;
_chemical_formula_sum "Si O2"
_cell_formula_units_Z 16
_cell_length_a 14.689340
_cell_length_b 5.142642
_cell_length_c 9.416734
_cell_angle_alpha 98.380968
_cell_angle_beta 114.770528
_cell_angle_gamma 76.806560
_cell_volume 627.848681
_symmetry_space_group_name_H-M "P -1"
_symmetry_group_IT_number 2
_symmetry_cell_setting 'triclinic'
loop_
_space_group_symop_operation_xyz
x,y,z
-x,-y,-z
loop_
_atom_site_type_symbol
_atom_site_label
_atom_site_fract_x
_atom_site_fract_y
_atom_site_fract_z
Si Si1 0.125409 0.328891 0.304794
Si Si2 0.620357 0.739479 0.057756
Si Si3 0.995874 0.108816 0.842683
Si Si4 0.518157 0.975076 0.769436
Si Si5 0.791364 0.078693 0.136702
Si Si6 0.277509 0.878856 0.201951
Si Si7 0.750543 0.444959 0.359937
Si Si8 0.604524 0.336592 0.493540
O O1 0.074907 0.604229 0.213791
O O2 0.204871 0.140021 0.237999
O O3 0.182384 0.395252 0.489944
O O4 0.045732 0.137056 0.277609
O O5 0.702506 0.535116 0.182023
O O6 0.532125 0.831107 0.123067
O O7 0.687838 0.962968 0.083287
O O8 0.565318 0.704930 0.869756
O O9 0.107166 0.128610 0.858791
O O10 0.000000 0.000000 0.000000
O O11 0.611697 0.056295 0.756781
O O12 0.429302 0.937138 0.600959
O O13 0.816092 0.174279 0.318545
O O14 0.769622 0.223842 0.978077
O O15 0.305470 0.680771 0.335658
O O16 0.653574 0.426217 0.391075
O O17 0.500000 0.500000 0.500000
#
# Coordination Sequence:
#
# PCOD9014497 Si02
#       8
#     2   2   2   2   2   2   2   2
#     4  12  28  50  81 114 153 200 259 323 390 462
#     4  10  23  44  67 103 151 193 250 306 387 451
#     4  12  28  52  83 115 151 199 264 324 395 465
#     4  10  21  41  68 101 147 196 248 310 371 459
#     4  11  27  47  76 108 151 200 256 322 389 457
#     4  11  24  46  76 109 156 202 261 320 386 459
#     4  12  27  44  76 106 156 199 248 323 382 463
#     4  12  24  41  70 114 152 204 260 312 379 455
#
# _framework density 25.483847000000001
#
# number of rings (size 3 to 8) (size 9 to 14) (size 15 to 20)
#    0.000    0.750    2.500    3.750    5.250    2.500 
#    0.000    0.000    0.000    0.000    0.000    0.000 
#    0.000    0.000    0.000    0.000    0.000    0.000 
#
# Total GULP energy -89342.075414 kJ/mol
# GULP energy per Si atom -5583.879713 kJ/mol
# Density = 2.542584 g / cm^3
# Si number density = 25.483847 Si / 1000 Ang^3
#
#
#
# Elastic Constant Matrix: (Units=GPa)
#
#
# Indices 1 2 3 4 5 6 
#
# 1 96.8614 9.1394 38.8875 9.9013 6.5799 -13.6003
# 2 9.1394 66.9893 47.5668 -6.4206 -3.1671 -7.8129
# 3 38.8875 47.5668 162.0536 12.8928 -15.5411 -19.7762
# 4 9.9013 -6.4206 12.8928 33.3177 0.6234 -0.9259
# 5 6.5799 -3.1671 -15.5411 0.6234 37.7746 0.5996
# 6 -13.6003 -7.8129 -19.7762 -0.9259 0.5996 27.9649
#
#
#
# Elastic Compliance Matrix: (Units=1/GPa)
#
#
# Indices 1 2 3 4 5 6 
#
# 1 0.012434 0.000314 -0.002681 -0.002418 -0.003270 0.004229
# 2 0.000314 0.020179 -0.006432 0.006347 -0.001137 0.001476
# 3 -0.002681 -0.006432 0.009868 -0.004235 0.004000 0.003652
# 4 -0.002418 0.006347 -0.004235 0.033584 -0.001323 -0.001257
# 5 -0.003270 -0.001137 0.004000 -0.001323 0.028610 0.000263
# 6 0.004229 0.001476 0.003652 -0.001257 0.000263 0.040763
#
#
# Mechanical properties :
#
#
# Convention : Reuss Voigt Hill
#
# Bulk Modulus (GPa) = 40.18835 57.45463 48.82149
# Shear Modulus (GPa) = 29.18320 35.16548 32.17434
#
# Velocity S-wave (km/s) = 3.38770 3.71875 3.55708
# Velocity P-wave (km/s) = 5.57731 6.40572 6.00581
#
# Compressibility (1/GPa) = 0.02488283
#
# Stress axis : x y z
#
# Youngs Moduli (GPa) = 80.42564 49.55669 101.33448
#
# Poissons Ratio (x) = -0.01557 0.27168
# Poissons Ratio (y) = -0.02527 0.65181
# Poissons Ratio (z) = 0.21562 0.31876
#
# Static dielectric constant tensor:
#      x y z
#    x 1.955990 -0.117440 0.054850 
#    y -0.117440 2.393890 -0.100780 
#    z 0.054850 -0.100780 2.054630 
# 
# From -- ./inp_files/289059.got.cif
#   From: 2010.05.17/outbox.cif.g08.bks.cpg/sg2_145_cif.got.tgz:289059.got - 2010.06.03 11:33:40.
