data_PCOD9014764
_publ_section_title
;
Structure prediction by ZEFSAII (Michael W. Deem and Ramdas Pophale) SiO2 
 PCOD9014764
Probable space group: P -1
;
_chemical_formula_sum "Si O2"
_cell_formula_units_Z 16
_cell_length_a 9.329722
_cell_length_b 8.900159
_cell_length_c 10.514306
_cell_angle_alpha 52.896166
_cell_angle_beta 96.583435
_cell_angle_gamma 100.693473
_cell_volume 684.211950
_symmetry_space_group_name_H-M "P -1"
_symmetry_group_IT_number 2
_symmetry_cell_setting 'triclinic'
loop_
_space_group_symop_operation_xyz
x,y,z
-x,-y,-z
loop_
_atom_site_type_symbol
_atom_site_label
_atom_site_fract_x
_atom_site_fract_y
_atom_site_fract_z
Si Si1 0.050820 0.312493 0.538956
Si Si2 0.451180 0.824885 0.488872
Si Si3 0.286532 0.084960 0.689875
Si Si4 0.098998 0.013877 0.128142
Si Si5 0.662560 0.106205 0.950502
Si Si6 0.444855 0.525632 0.185383
Si Si7 0.171607 0.765101 0.643566
Si Si8 0.273296 0.406135 0.973398
O O1 0.976398 0.125397 0.702459
O O2 0.989367 0.290707 0.400503
O O3 0.000000 0.500000 0.500000
O O4 0.219491 0.282481 0.585532
O O5 0.540426 0.882059 0.340533
O O6 0.518258 0.641757 0.637218
O O7 0.279200 0.781587 0.522077
O O8 0.500000 0.000000 0.500000
O O9 0.262593 0.964659 0.878233
O O10 0.206381 0.956236 0.632847
O O11 0.248343 0.943825 0.135662
O O12 0.143822 0.232628 0.058822
O O13 0.000000 0.000000 0.000000
O O14 0.649407 0.327942 0.838716
O O15 0.500000 0.000000 0.000000
O O16 0.601773 0.631204 0.096260
O O17 0.357124 0.438213 0.098024
O O18 0.217286 0.596698 0.821022
#
# Coordination Sequence:
#
# PCOD9014764 Si02
#       8
#     2   2   2   2   2   2   2   2
#     4  12  28  46  67  93 143 186 222 275 343 407
#     4   9  22  38  69 101 133 164 222 279 334 392
#     4  11  24  46  65 102 135 177 226 280 333 403
#     4  12  26  45  65  96 139 182 226 277 341 403
#     4  12  25  43  70  99 136 177 229 282 338 403
#     4  10  21  41  69 105 129 175 223 283 338 397
#     4  10  22  44  70  99 131 175 225 279 340 396
#     4  10  21  41  71  98 134 171 229 280 334 405
#
# _framework density 23.384564999999998
#
# number of rings (size 3 to 8) (size 9 to 14) (size 15 to 20)
#    0.000    1.250    3.750    1.125    8.750    0.000 
#    0.000    2.500    0.000    0.000    0.000    0.000 
#    0.000    0.000    0.000    0.000    0.000    0.000 
#
# Total GULP energy -89490.112991 kJ/mol
# GULP energy per Si atom -5593.132062 kJ/mol
# Density = 2.333134 g / cm^3
# Si number density = 23.384565 Si / 1000 Ang^3
#
#
#
# Elastic Constant Matrix: (Units=GPa)
#
#
# Indices 1 2 3 4 5 6 
#
# 1 68.8620 8.2498 7.3503 -5.2212 7.5267 -8.9515
# 2 8.2498 56.0288 11.8426 -19.4346 8.3791 -4.2307
# 3 7.3503 11.8426 63.2476 -3.7378 4.2228 -2.4070
# 4 -5.2212 -19.4346 -3.7378 35.8085 -0.5557 6.1542
# 5 7.5267 8.3791 4.2228 -0.5557 47.2832 -2.0091
# 6 -8.9515 -4.2307 -2.4070 6.1542 -2.0091 43.6054
#
#
#
# Elastic Compliance Matrix: (Units=1/GPa)
#
#
# Indices 1 2 3 4 5 6 
#
# 1 0.015450 -0.001152 -0.001282 0.000989 -0.002012 0.002757
# 2 -0.001152 0.023465 -0.003305 0.012172 -0.003538 -0.000023
# 3 -0.001282 -0.003305 0.016619 -0.000316 -0.000683 0.000347
# 4 0.000989 0.012172 -0.000316 0.035248 -0.002029 -0.003702
# 5 -0.002012 -0.003538 -0.000683 -0.002029 0.022155 0.000513
# 6 0.002757 -0.000023 0.000347 -0.003702 0.000513 0.024062
#
#
# Mechanical properties :
#
#
# Convention : Reuss Voigt Hill
#
# Bulk Modulus (GPa) = 22.69849 27.00264 24.85056
# Shear Modulus (GPa) = 30.64416 36.05248 33.34832
#
# Velocity S-wave (km/s) = 3.62393 3.93074 3.78045
# Velocity P-wave (km/s) = 5.21902 5.67214 5.45029
#
# Compressibility (1/GPa) = 0.04405580
#
# Stress axis : x y z
#
# Youngs Moduli (GPa) = 64.72537 42.61586 60.17250
#
# Poissons Ratio (x) = 0.04909 0.07715
# Poissons Ratio (y) = 0.07455 0.19888
# Poissons Ratio (z) = 0.08299 0.14085
#
# Static dielectric constant tensor:
#      x y z
#    x 1.946260 0.000260 0.007380 
#    y 0.000260 1.839130 0.019030 
#    z 0.007380 0.019030 1.839000 
# 
# From -- ./inp_files/184145.got.cif
#   From: 2010.05.17/outbox.cif.g08.bks.cpg/sg2_93_cif.got.tgz:184145.got - 2010.06.03 11:33:40.
