data_PCOD9014407
_publ_section_title
;
Structure prediction by ZEFSAII (Michael W. Deem and Ramdas Pophale) SiO2 
 PCOD9014407
Probable space group: P -1
;
_chemical_formula_sum "Si O2"
_cell_formula_units_Z 14
_cell_length_a 5.384846
_cell_length_b 13.931481
_cell_length_c 24.981756
_cell_angle_alpha 19.723391
_cell_angle_beta 79.774857
_cell_angle_gamma 75.178374
_cell_volume 599.813465
_symmetry_space_group_name_H-M "P -1"
_symmetry_group_IT_number 2
_symmetry_cell_setting 'triclinic'
loop_
_space_group_symop_operation_xyz
x,y,z
-x,-y,-z
loop_
_atom_site_type_symbol
_atom_site_label
_atom_site_fract_x
_atom_site_fract_y
_atom_site_fract_z
Si Si1 0.710432 0.168354 0.612389
Si Si2 0.044379 0.781624 0.724317
Si Si3 0.476942 0.950632 0.463487
Si Si4 0.714557 0.313602 0.813806
Si Si5 0.797863 0.390959 0.601231
Si Si6 0.415942 0.182882 0.989255
Si Si7 0.864856 0.703993 0.267898
O O1 0.694900 0.201942 0.659565
O O2 0.411587 0.304539 0.534597
O O3 0.829354 0.407342 0.451293
O O4 0.884521 0.863050 0.743227
O O5 0.191304 0.442167 0.886702
O O6 0.809060 0.895891 0.630102
O O7 0.281658 0.940271 0.627524
O O8 0.528591 0.596812 0.642619
O O9 0.500000 0.000000 0.500000
O O10 0.617804 0.318827 0.875454
O O11 0.002358 0.337625 0.773896
O O12 0.695224 0.009390 0.948108
O O13 0.000000 0.500000 0.500000
O O14 0.933712 0.217585 0.738588
O O15 0.596506 0.953969 0.143288
#
# Coordination Sequence:
#
# PCOD9014407 Si02
#       7
#     2   2   2   2   2   2   2
#     4  10  21  41  67  97 125 169 227 279 334 397
#     4  12  26  43  67 100 138 177 222 285 334 390
#     4  12  25  44  67  95 136 182 233 277 323 391
#     4  11  24  41  64  91 136 186 227 266 328 399
#     4   9  20  38  68  97 122 162 227 283 331 399
#     4  11  26  39  60  98 140 181 220 271 333 406
#     4  11  20  39  64  93 128 174 221 275 329 400
#
# _framework density 23.340591
#
# number of rings (size 3 to 8) (size 9 to 14) (size 15 to 20)
#    0.000    1.143    2.857    3.429    4.000    1.143 
#    0.000    0.714    0.000   12.000    0.000    0.000 
#    0.000    0.000    0.000    0.000    0.000    0.000 
#
# Total GULP energy -78191.083260 kJ/mol
# GULP energy per Si atom -5585.077376 kJ/mol
# Density = 2.328747 g / cm^3
# Si number density = 23.340591 Si / 1000 Ang^3
#
#
#
# Elastic Constant Matrix: (Units=GPa)
#
#
# Indices 1 2 3 4 5 6 
#
# 1 92.8016 22.0224 19.7018 -7.0162 21.8041 -13.1347
# 2 22.0224 114.0680 31.7353 -20.8579 18.1649 -18.8600
# 3 19.7018 31.7353 99.0470 -40.5907 28.6772 -4.3156
# 4 -7.0162 -20.8579 -40.5907 45.4413 -10.8946 10.2372
# 5 21.8041 18.1649 28.6772 -10.8946 47.4226 2.5798
# 6 -13.1347 -18.8600 -4.3156 10.2372 2.5798 41.4030
#
#
#
# Elastic Compliance Matrix: (Units=1/GPa)
#
#
# Indices 1 2 3 4 5 6 
#
# 1 0.013045 -0.000892 -0.001268 -0.001851 -0.005555 0.004404
# 2 -0.000892 0.010824 -0.001616 0.001829 -0.002567 0.004187
# 3 -0.001268 -0.001616 0.018711 0.014741 -0.006595 -0.002422
# 4 -0.001851 0.001829 0.014741 0.037478 0.000255 -0.007500
# 5 -0.005555 -0.002567 -0.006595 0.000255 0.028969 -0.005487
# 6 0.004404 0.004187 -0.002422 -0.007500 -0.005487 0.029401
#
#
# Mechanical properties :
#
#
# Convention : Reuss Voigt Hill
#
# Bulk Modulus (GPa) = 28.54749 50.31509 39.43129
# Shear Modulus (GPa) = 31.71504 42.35054 37.03279
#
# Velocity S-wave (km/s) = 3.69018 4.26427 3.98757
# Velocity P-wave (km/s) = 5.51489 6.77119 6.17507
#
# Compressibility (1/GPa) = 0.03502935
#
# Stress axis : x y z
#
# Youngs Moduli (GPa) = 76.65898 92.38968 53.44490
#
# Poissons Ratio (x) = 0.08238 0.06775
# Poissons Ratio (y) = 0.06835 0.08635
# Poissons Ratio (z) = 0.09718 0.14927
#
# Static dielectric constant tensor:
#      x y z
#    x 2.007440 0.045310 -0.039300 
#    y 0.045310 1.944820 -0.024660 
#    z -0.039300 -0.024660 1.876430 
# 
# From -- ./inp_files/34569.got.cif
#   From: 2010.05.17/outbox.cif.g08.bks.cpg/sg2_18_cif.got.tgz:34569.got - 2010.06.03 11:33:40.
