data_PCOD9014050
_publ_section_title
;
Structure prediction by ZEFSAII (Michael W. Deem and Ramdas Pophale) SiO2 
 PCOD9014050
Probable space group: P -1
;
_chemical_formula_sum "Si O2"
_cell_formula_units_Z 15
_cell_length_a 14.786608
_cell_length_b 9.099430
_cell_length_c 20.373827
_cell_angle_alpha 47.509317
_cell_angle_beta 158.574233
_cell_angle_gamma 131.303853
_cell_volume 733.415977
_symmetry_space_group_name_H-M "P -1"
_symmetry_group_IT_number 2
_symmetry_cell_setting 'triclinic'
loop_
_space_group_symop_operation_xyz
x,y,z
-x,-y,-z
loop_
_atom_site_type_symbol
_atom_site_label
_atom_site_fract_x
_atom_site_fract_y
_atom_site_fract_z
Si Si1 0.690028 0.858097 0.542496
Si Si2 0.316532 0.495852 0.783814
Si Si3 0.976255 0.816475 0.410429
Si Si4 0.000000 0.000000 0.500000
Si Si5 0.289549 0.355710 0.515244
Si Si6 0.843732 0.004428 0.826212
Si Si7 0.219590 0.364579 0.199185
Si Si8 0.147401 0.365663 0.851952
O O1 0.660905 0.706560 0.507000
O O2 0.417509 0.911019 0.362126
O O3 0.808565 0.761545 0.714251
O O4 0.861478 0.055707 0.573184
O O5 0.227767 0.344316 0.711414
O O6 0.241988 0.383938 0.835474
O O7 0.160270 0.687393 0.615319
O O8 0.606599 0.574319 0.956652
O O9 0.883762 0.963470 0.357212
O O10 0.774140 0.844485 0.425232
O O11 0.520178 0.495986 0.658976
O O12 0.048629 0.474890 0.319270
O O13 0.008782 0.152215 0.843493
O O14 0.783942 0.789297 0.816945
O O15 0.000000 0.000000 0.000000
O O16 0.000000 0.500000 0.000000
#
# Coordination Sequence:
#
# PCOD9014050 Si02
#       8
#     2   2   2   1   2   2   2   2
#     4  11  24  44  68  98 137 176 221 279 337 397
#     4  10  22  40  68  97 130 175 227 271 330 399
#     4  10  21  41  66  95 131 172 223 275 331 396
#     4  10  22  42  64  98 128 180 212 278 336 388
#     4  11  24  45  70  93 141 173 221 279 338 398
#     4  12  26  43  72 101 134 177 228 275 338 403
#     4  12  27  45  69 101 134 179 224 279 338 402
#     4  11  23  42  69  97 136 176 225 279 331 396
#
# _framework density 20.452241000000001
#
# number of rings (size 3 to 8) (size 9 to 14) (size 15 to 20)
#    0.000    1.067    2.667    3.200    3.733    2.133 
#    2.400    1.333    0.000    0.000    0.000    0.000 
#    0.000    0.000    0.000    0.000    0.000    0.000 
#
# Total GULP energy -83633.837682 kJ/mol
# GULP energy per Si atom -5575.589179 kJ/mol
# Density = 2.040569 g / cm^3
# Si number density = 20.452241 Si / 1000 Ang^3
#
#
#
# Elastic Constant Matrix: (Units=GPa)
#
#
# Indices 1 2 3 4 5 6 
#
# 1 70.3728 24.0943 24.3999 -1.7120 -13.1411 3.0132
# 2 24.0943 60.9923 9.7989 18.3971 -11.7660 -12.1643
# 3 24.3999 9.7989 112.2968 4.3793 -8.7796 -17.6005
# 4 -1.7120 18.3971 4.3793 23.5280 -1.1447 -9.5496
# 5 -13.1411 -11.7660 -8.7796 -1.1447 29.1453 -8.0895
# 6 3.0132 -12.1643 -17.6005 -9.5496 -8.0895 37.6052
#
#
#
# Elastic Compliance Matrix: (Units=1/GPa)
#
#
# Indices 1 2 3 4 5 6 
#
# 1 0.020055 -0.010090 -0.004216 0.008644 0.002922 -0.004020
# 2 -0.010090 0.029752 0.002489 -0.020545 0.009758 0.008480
# 3 -0.004216 0.002489 0.011077 -0.001294 0.004313 0.006927
# 4 0.008644 -0.020545 -0.001294 0.062654 -0.000121 0.007941
# 5 0.002922 0.009758 0.004313 -0.000121 0.044906 0.014570
# 6 -0.004020 0.008480 0.006927 0.007941 0.014570 0.038050
#
#
# Mechanical properties :
#
#
# Convention : Reuss Voigt Hill
#
# Bulk Modulus (GPa) = 26.84534 40.02757 33.43645
# Shear Modulus (GPa) = 20.61481 30.41363 25.51422
#
# Velocity S-wave (km/s) = 3.17826 3.86042 3.53583
# Velocity P-wave (km/s) = 5.15973 6.28364 5.74922
#
# Compressibility (1/GPa) = 0.03725041
#
# Stress axis : x y z
#
# Youngs Moduli (GPa) = 49.86375 33.61094 90.27718
#
# Poissons Ratio (x) = 0.33915 0.38058
# Poissons Ratio (y) = 0.50315 -0.22474
# Poissons Ratio (z) = 0.21021 -0.08367
#
# Static dielectric constant tensor:
#      x y z
#    x 1.737640 -0.022940 0.001200 
#    y -0.022940 1.768200 -0.015350 
#    z 0.001200 -0.015350 1.697440 
# 
# From -- ./inp_files/242571.got.cif
#   From: 2010.05.17/outbox.cif.g08.bks.cpg/sg2_122_cif.got.tgz:242571.got - 2010.06.03 11:33:40.
