data_PCOD9014299
_publ_section_title
;
Structure prediction by ZEFSAII (Michael W. Deem and Ramdas Pophale) SiO2 
 PCOD9014299
Probable space group: P -1
;
_chemical_formula_sum "Si O2"
_cell_formula_units_Z 10
_cell_length_a 9.349044
_cell_length_b 12.899349
_cell_length_c 7.481507
_cell_angle_alpha 27.005411
_cell_angle_beta 116.192094
_cell_angle_gamma 118.117059
_cell_volume 360.816976
_symmetry_space_group_name_H-M "P -1"
_symmetry_group_IT_number 2
_symmetry_cell_setting 'triclinic'
loop_
_space_group_symop_operation_xyz
x,y,z
-x,-y,-z
loop_
_atom_site_type_symbol
_atom_site_label
_atom_site_fract_x
_atom_site_fract_y
_atom_site_fract_z
Si Si1 0.927772 0.707226 0.542198
Si Si2 0.272161 0.939584 0.441054
Si Si3 0.632525 0.338544 0.373524
Si Si4 0.658486 0.404153 0.686303
Si Si5 0.163855 0.205553 0.280372
O O1 0.091706 0.894569 0.329109
O O2 0.819155 0.607041 0.469243
O O3 0.808424 0.791865 0.494138
O O4 0.000000 0.500000 0.000000
O O5 0.621002 0.111460 0.590597
O O6 0.273539 0.139503 0.281095
O O7 0.305984 0.744710 0.897592
O O8 0.631424 0.282445 0.667829
O O9 0.500000 0.500000 0.000000
O O10 0.806796 0.515482 0.166953
O O11 0.500000 0.500000 0.500000
O O12 0.000000 0.000000 0.500000
#
# Coordination Sequence:
#
# PCOD9014299 Si02
#       5
#     2   2   2   2   2
#     4   9  17  39  64  84 127 164 199 259 312 365
#     4  10  22  42  64  92 130 166 212 264 312 375
#     4  12  23  42  66  91 131 172 209 261 324 375
#     4  11  21  40  65  91 127 174 207 258 324 376
#     4  10  21  41  67  93 129 165 210 268 312 373
#
# _framework density 27.714883
#
# number of rings (size 3 to 8) (size 9 to 14) (size 15 to 20)
#    0.000    1.600    6.000    0.000    0.000    1.600 
#    3.600    4.000    0.000    0.000    0.000    0.000 
#    0.000    0.000    0.000    0.000    0.000    0.000 
#
# Total GULP energy -55764.050132 kJ/mol
# GULP energy per Si atom -5576.405013 kJ/mol
# Density = 2.765180 g / cm^3
# Si number density = 27.714883 Si / 1000 Ang^3
#
#
#
# Elastic Constant Matrix: (Units=GPa)
#
#
# Indices 1 2 3 4 5 6 
#
# 1 153.6855 94.5281 13.2436 13.3415 11.4142 -39.1397
# 2 94.5281 171.7969 33.7027 14.7498 8.7816 -18.3774
# 3 13.2436 33.7027 65.5647 11.4498 4.7139 10.3545
# 4 13.3415 14.7498 11.4498 64.0567 -2.3546 -7.8220
# 5 11.4142 8.7816 4.7139 -2.3546 36.0678 -5.4545
# 6 -39.1397 -18.3774 10.3545 -7.8220 -5.4545 80.4215
#
#
#
# Elastic Compliance Matrix: (Units=1/GPa)
#
#
# Indices 1 2 3 4 5 6 
#
# 1 0.011106 -0.005601 0.000248 -0.000649 -0.001633 0.003920
# 2 -0.005601 0.009670 -0.003746 -0.000405 -0.000131 -0.000082
# 3 0.000248 -0.003746 0.018376 -0.002991 -0.002300 -0.003549
# 4 -0.000649 -0.000405 -0.002991 0.016662 0.002045 0.001736
# 5 -0.001633 -0.000131 -0.002300 0.002045 0.028956 0.001634
# 6 0.003920 -0.000082 -0.003549 0.001736 0.001634 0.015060
#
#
# Mechanical properties :
#
#
# Convention : Reuss Voigt Hill
#
# Bulk Modulus (GPa) = 47.72607 74.88843 61.30725
# Shear Modulus (GPa) = 39.99541 52.74738 46.37140
#
# Velocity S-wave (km/s) = 3.80294 4.36732 4.09486
# Velocity P-wave (km/s) = 6.04491 7.24645 6.67278
#
# Compressibility (1/GPa) = 0.02095291
#
# Stress axis : x y z
#
# Youngs Moduli (GPa) = 90.03750 103.40751 54.41870
#
# Poissons Ratio (x) = 0.57921 -0.01347
# Poissons Ratio (y) = 0.50432 0.20387
# Poissons Ratio (z) = -0.02229 0.38741
#
# Static dielectric constant tensor:
#      x y z
#    x 2.289210 0.049700 0.055560 
#    y 0.049700 2.074720 -0.117370 
#    z 0.055560 -0.117370 2.355740 
# 
# From -- ./inp_files/144153.got.cif
#   From: 2010.05.17/outbox.cif.g08.bks.cpg/sg2_73_cif.got.tgz:144153.got - 2010.06.03 11:33:40.
