data_PCOD9014502
_publ_section_title
;
Structure prediction by ZEFSAII (Michael W. Deem and Ramdas Pophale) SiO2 
 PCOD9014502
Probable space group: P -1
;
_chemical_formula_sum "Si O2"
_cell_formula_units_Z 14
_cell_length_a 10.977405
_cell_length_b 7.348119
_cell_length_c 16.297810
_cell_angle_alpha 46.986990
_cell_angle_beta 33.594101
_cell_angle_gamma 60.192371
_cell_volume 523.583701
_symmetry_space_group_name_H-M "P -1"
_symmetry_group_IT_number 2
_symmetry_cell_setting 'triclinic'
loop_
_space_group_symop_operation_xyz
x,y,z
-x,-y,-z
loop_
_atom_site_type_symbol
_atom_site_label
_atom_site_fract_x
_atom_site_fract_y
_atom_site_fract_z
Si Si1 0.980272 0.900092 0.849988
Si Si2 0.177743 0.828840 0.289885
Si Si3 0.555434 0.679534 0.229994
Si Si4 0.614420 0.254635 0.425129
Si Si5 0.425317 0.874354 0.787490
Si Si6 0.142519 0.349525 0.344870
Si Si7 0.001658 0.382612 0.809536
O O1 0.207995 0.845185 0.702227
O O2 0.841523 0.951791 0.830011
O O3 0.016498 0.134656 0.822154
O O4 0.807570 0.682848 0.058460
O O5 0.407032 0.765157 0.215255
O O6 0.098729 0.591950 0.346925
O O7 0.033037 0.858134 0.443732
O O8 0.466332 0.411021 0.404326
O O9 0.560629 0.900041 0.224778
O O10 0.496758 0.024496 0.617735
O O11 0.765170 0.470391 0.330974
O O12 0.612536 0.710111 0.758138
O O13 0.178858 0.711673 0.988590
O O14 0.095662 0.425347 0.255771
#
# Coordination Sequence:
#
# PCOD9014502 Si02
#       7
#     2   2   2   2   2   2   2
#     4  10  23  45  70 101 137 184 233 283 347 403
#     4  10  21  41  69 100 136 177 234 290 336 411
#     4  11  25  42  67 103 141 178 232 284 343 418
#     4  12  25  47  71 101 144 187 225 282 352 412
#     4  11  24  43  68 104 136 180 235 281 348 409
#     4  10  21  41  68 102 136 177 233 289 346 399
#     4  10  25  44  71 104 140 177 235 290 335 417
#
# _framework density 26.738800999999999
#
# number of rings (size 3 to 8) (size 9 to 14) (size 15 to 20)
#    0.000    1.429    1.429    2.571    4.000    3.429 
#    2.571    3.571    0.000    0.000    0.000    0.000 
#    0.000    0.000    0.000    0.000    0.000    0.000 
#
# Total GULP energy -78455.550619 kJ/mol
# GULP energy per Si atom -5603.967901 kJ/mol
# Density = 2.667794 g / cm^3
# Si number density = 26.738801 Si / 1000 Ang^3
#
#
#
# Elastic Constant Matrix: (Units=GPa)
#
#
# Indices 1 2 3 4 5 6 
#
# 1 124.3375 31.5660 41.3545 -9.5650 -1.7651 -14.3049
# 2 31.5660 79.1325 34.4877 0.5773 20.7146 -3.5672
# 3 41.3545 34.4877 162.7562 4.7601 15.6078 2.1363
# 4 -9.5650 0.5773 4.7601 43.5571 -4.7649 3.7801
# 5 -1.7651 20.7146 15.6078 -4.7649 22.3796 5.0827
# 6 -14.3049 -3.5672 2.1363 3.7801 5.0827 47.3553
#
#
#
# Elastic Compliance Matrix: (Units=1/GPa)
#
#
# Indices 1 2 3 4 5 6 
#
# 1 0.010767 -0.005146 -0.002502 0.003379 0.007649 0.001887
# 2 -0.005146 0.020527 -0.001046 -0.003694 -0.020027 0.002483
# 3 -0.002502 -0.001046 0.007517 -0.001831 -0.004744 -0.000519
# 4 0.003379 -0.003694 -0.001831 0.025347 0.010897 -0.002368
# 5 0.007649 -0.020027 -0.004744 0.010897 0.071154 -0.007491
# 6 0.001887 0.002483 -0.000519 -0.002368 -0.007491 0.022890
#
#
# Mechanical properties :
#
#
# Convention : Reuss Voigt Hill
#
# Bulk Modulus (GPa) = 46.68157 64.56030 55.62094
# Shear Modulus (GPa) = 27.36248 39.91293 33.63770
#
# Velocity S-wave (km/s) = 3.20242 3.86773 3.55069
# Velocity P-wave (km/s) = 5.58303 6.64402 6.13650
#
# Compressibility (1/GPa) = 0.02142173
#
# Stress axis : x y z
#
# Youngs Moduli (GPa) = 92.87623 48.71603 133.03346
#
# Poissons Ratio (x) = 0.25070 0.33290
# Poissons Ratio (y) = 0.47795 0.13917
# Poissons Ratio (z) = 0.23241 0.05096
#
# Static dielectric constant tensor:
#      x y z
#    x 2.095940 0.003930 -0.013130 
#    y 0.003930 2.073620 -0.028590 
#    z -0.013130 -0.028590 2.106020 
# 
# From -- ./inp_files/159285.got.cif
#   From: 2010.05.17/outbox.cif.g08.bks.cpg/sg2_80_cif.got.tgz:159285.got - 2010.06.03 11:33:40.
