data_PCOD9014915
_publ_section_title
;
Structure prediction by ZEFSAII (Michael W. Deem and Ramdas Pophale) SiO2 
 PCOD9014915
Probable space group: P -1
;
_chemical_formula_sum "Si O2"
_cell_formula_units_Z 13
_cell_length_a 16.237224
_cell_length_b 7.750096
_cell_length_c 9.133073
_cell_angle_alpha 51.192713
_cell_angle_beta 142.021570
_cell_angle_gamma 116.434262
_cell_volume 548.260655
_symmetry_space_group_name_H-M "P -1"
_symmetry_group_IT_number 2
_symmetry_cell_setting 'triclinic'
loop_
_space_group_symop_operation_xyz
x,y,z
-x,-y,-z
loop_
_atom_site_type_symbol
_atom_site_label
_atom_site_fract_x
_atom_site_fract_y
_atom_site_fract_z
Si Si1 0.311995 0.712140 0.095216
Si Si2 0.456421 0.279287 0.363688
Si Si3 0.369385 0.918471 0.787805
Si Si4 0.039519 0.692727 0.150017
Si Si5 0.220084 0.067248 0.236869
Si Si6 0.015371 0.774685 0.737184
Si Si7 0.500000 0.500000 0.000000
O O1 0.380995 0.492080 0.230305
O O2 0.420348 0.795324 0.314672
O O3 0.278918 0.872033 0.824866
O O4 0.173342 0.681891 0.995925
O O5 0.336427 0.121112 0.261247
O O6 0.507457 0.346997 0.242003
O O7 0.420688 0.705640 0.875896
O O8 0.291887 0.094000 0.478760
O O9 0.500000 0.000000 0.000000
O O10 0.065433 0.426203 0.328159
O O11 0.167645 0.823974 0.291280
O O12 0.991906 0.783258 0.873950
O O13 0.918111 0.770361 0.049789
O O14 0.000000 0.000000 0.500000
#
# Coordination Sequence:
#
# PCOD9014915 Si02
#       7
#     2   2   2   2   2   2   1
#     4  10  21  41  70 100 138 188 234 295 371 427
#     4  10  21  42  70 101 144 183 234 305 367 430
#     4  11  23  43  67 102 142 189 236 297 368 439
#     4  10  25  44  69 104 140 194 244 294 363 443
#     4  11  22  46  68  98 146 190 236 304 369 431
#     4  11  23  46  70 104 141 191 246 300 358 440
#     4  10  26  40  64 112 138 184 248 294 366 452
#
# _framework density 23.711349999999999
#
# number of rings (size 3 to 8) (size 9 to 14) (size 15 to 20)
#    0.000    1.538    3.077    0.923    2.154    1.846 
#   11.077    2.308    0.000    0.000    0.000    0.000 
#    0.000    0.000    0.000    0.000    0.000    0.000 
#
# Total GULP energy -72384.624859 kJ/mol
# GULP energy per Si atom -5568.048066 kJ/mol
# Density = 2.365738 g / cm^3
# Si number density = 23.711350 Si / 1000 Ang^3
#
#
#
# Elastic Constant Matrix: (Units=GPa)
#
#
# Indices 1 2 3 4 5 6 
#
# 1 130.6987 24.1042 29.5328 5.8289 -11.3330 -4.4010
# 2 24.1042 113.0780 34.8760 6.4894 -2.5867 2.9225
# 3 29.5328 34.8760 68.1639 -3.1867 -14.9390 3.5547
# 4 5.8289 6.4894 -3.1867 33.3915 15.1451 1.3431
# 5 -11.3330 -2.5867 -14.9390 15.1451 32.7332 -7.1041
# 6 -4.4010 2.9225 3.5547 1.3431 -7.1041 24.9833
#
#
#
# Elastic Compliance Matrix: (Units=1/GPa)
#
#
# Indices 1 2 3 4 5 6 
#
# 1 0.009130 -0.000806 -0.002970 -0.003799 0.004268 0.003543
# 2 -0.000806 0.010814 -0.005501 -0.001881 -0.001256 -0.000880
# 3 -0.002970 -0.005501 0.020501 0.000060 0.007736 -0.000600
# 4 -0.003799 -0.001881 0.000060 0.041641 -0.022689 -0.009148
# 5 0.004268 -0.001256 0.007736 -0.022689 0.049215 0.015012
# 6 0.003543 -0.000880 -0.000600 -0.009148 0.015012 0.045600
#
#
# Mechanical properties :
#
#
# Convention : Reuss Voigt Hill
#
# Bulk Modulus (GPa) = 45.68098 54.32962 50.00530
# Shear Modulus (GPa) = 24.66073 33.11678 28.88876
#
# Velocity S-wave (km/s) = 3.22846 3.74125 3.49428
# Velocity P-wave (km/s) = 5.76234 6.45176 6.11677
#
# Compressibility (1/GPa) = 0.02189095
#
# Stress axis : x y z
#
# Youngs Moduli (GPa) = 109.53111 92.47395 48.77718
#
# Poissons Ratio (x) = 0.07453 0.14487
# Poissons Ratio (y) = 0.08828 0.26832
# Poissons Ratio (z) = 0.32532 0.50869
#
# Static dielectric constant tensor:
#      x y z
#    x 1.914920 0.020840 0.037020 
#    y 0.020840 1.997230 -0.029410 
#    z 0.037020 -0.029410 1.914140 
# 
# From -- ./inp_files/294382.got.cif
#   From: 2010.05.17/outbox.cif.g08.bks.cpg/sg2_148_cif.got.tgz:294382.got - 2010.06.03 11:33:40.
