data_PCOD9014673
_publ_section_title
;
Structure prediction by ZEFSAII (Michael W. Deem and Ramdas Pophale) SiO2 
 PCOD9014673
Probable space group: P -1
;
_chemical_formula_sum "Si O2"
_cell_formula_units_Z 12
_cell_length_a 7.238155
_cell_length_b 9.679060
_cell_length_c 8.685562
_cell_angle_alpha 60.499878
_cell_angle_beta 98.971097
_cell_angle_gamma 105.988903
_cell_volume 508.971141
_symmetry_space_group_name_H-M "P -1"
_symmetry_group_IT_number 2
_symmetry_cell_setting 'triclinic'
loop_
_space_group_symop_operation_xyz
x,y,z
-x,-y,-z
loop_
_atom_site_type_symbol
_atom_site_label
_atom_site_fract_x
_atom_site_fract_y
_atom_site_fract_z
Si Si1 0.099936 0.596122 0.808449
Si Si2 0.262218 0.893181 0.207652
Si Si3 0.437056 0.481729 0.827519
Si Si4 0.465627 0.315958 0.533806
Si Si5 0.382445 0.807762 0.958100
Si Si6 0.952357 0.854843 0.447030
O O1 0.210739 0.477500 0.795603
O O2 0.986010 0.689952 0.627410
O O3 0.261568 0.737213 0.832429
O O4 0.000000 0.500000 0.000000
O O5 0.350035 0.752085 0.371292
O O6 0.241861 0.853659 0.044502
O O7 0.087175 0.904420 0.287999
O O8 0.439116 0.050268 0.145427
O O9 0.542973 0.646884 0.668318
O O10 0.516077 0.325793 0.874981
O O11 0.500000 0.500000 0.000000
O O12 0.500000 0.500000 0.500000
O O13 0.732753 0.808397 0.385399
O O14 0.000000 0.000000 0.500000
#
# Coordination Sequence:
#
# PCOD9014673 Si02
#       6
#     2   2   2   2   2   2
#     4  11  24  41  68 103 134 178 232 278 337 410
#     4  11  25  46  69  99 140 180 225 284 342 410
#     4  10  21  41  68  97 136 178 222 281 337 405
#     4  12  25  46  70 101 136 178 228 280 346 398
#     4  10  23  45  67  97 140 182 220 281 350 396
#     4  12  28  44  71 104 136 181 232 281 340 410
#
# _framework density 23.576976999999999
#
# number of rings (size 3 to 8) (size 9 to 14) (size 15 to 20)
#    0.000    1.000    3.333    3.000    7.000    3.333 
#    0.000    2.500    0.000    0.000    0.000    0.000 
#    0.000    0.000    0.000    0.000    0.000    0.000 
#
# Total GULP energy -67027.206553 kJ/mol
# GULP energy per Si atom -5585.600546 kJ/mol
# Density = 2.352331 g / cm^3
# Si number density = 23.576977 Si / 1000 Ang^3
#
#
#
# Elastic Constant Matrix: (Units=GPa)
#
#
# Indices 1 2 3 4 5 6 
#
# 1 78.4144 12.1345 9.7821 19.8646 -29.6396 -9.9063
# 2 12.1345 60.3343 -1.4997 11.7979 -15.2886 -2.2234
# 3 9.7821 -1.4997 85.0686 -1.0466 -32.5476 -6.0454
# 4 19.8646 11.7979 -1.0466 44.5698 -8.9702 3.1070
# 5 -29.6396 -15.2886 -32.5476 -8.9702 55.4734 4.1580
# 6 -9.9063 -2.2234 -6.0454 3.1070 4.1580 31.8896
#
#
#
# Elastic Compliance Matrix: (Units=1/GPa)
#
#
# Indices 1 2 3 4 5 6 
#
# 1 0.018486 0.000260 0.001831 -0.006734 0.009520 0.005523
# 2 0.000260 0.018995 0.002751 -0.003928 0.006241 0.001496
# 3 0.001831 0.002751 0.016016 0.000911 0.011111 0.002259
# 4 -0.006734 -0.003928 0.000911 0.026957 0.000580 -0.004895
# 5 0.009520 0.006241 0.011111 0.000580 0.031345 0.001356
# 6 0.005523 0.001496 0.002259 -0.004895 0.001356 0.033907
#
#
# Mechanical properties :
#
#
# Convention : Reuss Voigt Hill
#
# Bulk Modulus (GPa) = 15.82745 29.40565 22.61655
# Shear Modulus (GPa) = 31.83043 39.94658 35.88850
#
# Velocity S-wave (km/s) = 3.67831 4.12066 3.90575
# Velocity P-wave (km/s) = 4.97671 5.92782 5.47296
#
# Compressibility (1/GPa) = 0.06318138
#
# Stress axis : x y z
#
# Youngs Moduli (GPa) = 54.09418 52.64569 62.43671
#
# Poissons Ratio (x) = -0.01370 -0.11432
# Poissons Ratio (y) = -0.01408 -0.17174
# Poissons Ratio (z) = -0.09905 -0.14481
#
# Static dielectric constant tensor:
#      x y z
#    x 2.118180 -0.084880 -0.008910 
#    y -0.084880 1.977000 0.055320 
#    z -0.008910 0.055320 2.033050 
# 
# From -- ./inp_files/153708.got.cif
#   From: 2010.05.17/outbox.cif.g08.bks.cpg/sg2_77_cif.got.tgz:153708.got - 2010.06.03 11:33:40.
