data_PCOD9014781
_publ_section_title
;
Structure prediction by ZEFSAII (Michael W. Deem and Ramdas Pophale) SiO2 
 PCOD9014781
Probable space group: P -1
;
_chemical_formula_sum "Si O2"
_cell_formula_units_Z 16
_cell_length_a 17.842941
_cell_length_b 9.437588
_cell_length_c 7.543142
_cell_angle_alpha 102.954082
_cell_angle_beta 42.216825
_cell_angle_gamma 124.183164
_cell_volume 662.637075
_symmetry_space_group_name_H-M "P -1"
_symmetry_group_IT_number 2
_symmetry_cell_setting 'triclinic'
loop_
_space_group_symop_operation_xyz
x,y,z
-x,-y,-z
loop_
_atom_site_type_symbol
_atom_site_label
_atom_site_fract_x
_atom_site_fract_y
_atom_site_fract_z
Si Si1 0.011702 0.376408 0.311552
Si Si2 0.541664 0.993569 0.625505
Si Si3 0.161578 0.726403 0.932571
Si Si4 0.275154 0.947796 0.164952
Si Si5 0.654472 0.677153 0.748659
Si Si6 0.075921 0.239261 0.755809
Si Si7 0.397070 0.293095 0.556545
Si Si8 0.893809 0.834204 0.902212
O O1 0.852229 0.191641 0.516236
O O2 0.000000 0.500000 0.500000
O O3 0.103651 0.522940 0.035598
O O4 0.090766 0.308347 0.256263
O O5 0.500000 0.000000 0.500000
O O6 0.539507 0.817106 0.583349
O O7 0.703887 0.171975 0.404858
O O8 0.420939 0.975636 0.948050
O O9 0.217500 0.850390 0.047587
O O10 0.032957 0.719866 0.083441
O O11 0.309266 0.145453 0.164092
O O12 0.766551 0.635435 0.556976
O O13 0.653080 0.722046 0.559125
O O14 0.500000 0.500000 0.000000
O O15 0.082543 0.204593 0.945187
O O16 0.012464 0.044351 0.721428
O O17 0.500000 0.500000 0.500000
O O18 0.251835 0.202536 0.888028
#
# Coordination Sequence:
#
# PCOD9014781 Si02
#       8
#     2   2   2   2   2   2   2   2
#     4  10  22  40  63  98 132 173 213 273 337 397
#     4  10  23  41  67  99 136 177 225 279 335 405
#     4  10  22  40  70 101 127 179 229 266 336 404
#     4  10  23  43  66  95 146 171 216 287 343 402
#     4  11  26  44  66 102 141 176 225 289 350 398
#     4  10  21  42  65  96 126 173 223 274 322 401
#     4  11  26  43  71  99 131 184 236 275 342 414
#     4  10  21  41  69  88 131 168 223 276 329 393
#
# _framework density 24.145949000000002
#
# number of rings (size 3 to 8) (size 9 to 14) (size 15 to 20)
#    0.000    1.750    2.500    0.000    8.750    3.500 
#    2.250    0.000    0.000    0.000    0.000    0.000 
#    0.000    0.000    0.000    0.000    0.000    0.000 
#
# Total GULP energy -89391.955075 kJ/mol
# GULP energy per Si atom -5586.997192 kJ/mol
# Density = 2.409099 g / cm^3
# Si number density = 24.145949 Si / 1000 Ang^3
#
#
#
# Elastic Constant Matrix: (Units=GPa)
#
#
# Indices 1 2 3 4 5 6 
#
# 1 91.9226 6.2119 18.1510 1.6606 -20.4565 -1.0571
# 2 6.2119 91.5101 27.6608 -17.1522 -4.3487 -1.5914
# 3 18.1510 27.6608 156.8120 -21.4182 -48.0291 -7.1182
# 4 1.6606 -17.1522 -21.4182 41.0643 -1.1257 -4.1416
# 5 -20.4565 -4.3487 -48.0291 -1.1257 35.7227 7.4911
# 6 -1.0571 -1.5914 -7.1182 -4.1416 7.4911 38.1063
#
#
#
# Elastic Compliance Matrix: (Units=1/GPa)
#
#
# Indices 1 2 3 4 5 6 
#
# 1 0.012741 -0.000893 0.001558 0.000059 0.009549 -0.001264
# 2 -0.000893 0.012307 -0.001991 0.004183 -0.001750 0.000916
# 3 0.001558 -0.001991 0.013074 0.006377 0.018544 -0.000550
# 4 0.000059 0.004183 0.006377 0.029961 0.009483 0.002760
# 5 0.009549 -0.001750 0.018544 0.009483 0.059969 -0.007103
# 6 -0.001264 0.000916 -0.000550 0.002760 -0.007103 0.027839
#
#
# Mechanical properties :
#
#
# Convention : Reuss Voigt Hill
#
# Bulk Modulus (GPa) = 28.19248 49.36576 38.77912
# Shear Modulus (GPa) = 29.34885 42.19341 35.77113
#
# Velocity S-wave (km/s) = 3.49015 4.18477 3.85314
# Velocity P-wave (km/s) = 5.28609 6.62109 5.99089
#
# Compressibility (1/GPa) = 0.03547045
#
# Stress axis : x y z
#
# Youngs Moduli (GPa) = 78.48769 81.25568 76.49060
#
# Poissons Ratio (x) = 0.07256 -0.11919
# Poissons Ratio (y) = 0.07009 0.15226
# Poissons Ratio (z) = -0.12230 0.16174
#
# Static dielectric constant tensor:
#      x y z
#    x 1.937300 0.039270 0.065000 
#    y 0.039270 2.020120 0.096550 
#    z 0.065000 0.096550 2.145470 
# 
# From -- ./inp_files/329116.got.cif
#   From: 2010.05.17/outbox.cif.g08.bks.cpg/sg2_165_cif.got.tgz:329116.got - 2010.06.03 11:33:40.
