data_PCOD9014995
_publ_section_title
;
Structure prediction by ZEFSAII (Michael W. Deem and Ramdas Pophale) SiO2 
 PCOD9014995
Probable space group: P -1
;
_chemical_formula_sum "Si O2"
_cell_formula_units_Z 16
_cell_length_a 10.255924
_cell_length_b 17.658499
_cell_length_c 5.120708
_cell_angle_alpha 50.657994
_cell_angle_beta 104.102883
_cell_angle_gamma 110.677243
_cell_volume 670.763035
_symmetry_space_group_name_H-M "P -1"
_symmetry_group_IT_number 2
_symmetry_cell_setting 'triclinic'
loop_
_space_group_symop_operation_xyz
x,y,z
-x,-y,-z
loop_
_atom_site_type_symbol
_atom_site_label
_atom_site_fract_x
_atom_site_fract_y
_atom_site_fract_z
Si Si1 0.907449 0.324219 0.394386
Si Si2 0.903758 0.968523 0.267696
Si Si3 0.367611 0.999752 0.757115
Si Si4 0.268794 0.355586 0.789491
Si Si5 0.126256 0.251990 0.425900
Si Si6 0.872539 0.492488 0.660531
Si Si7 0.482295 0.228654 0.230501
Si Si8 0.660380 0.220101 0.855848
O O1 0.811445 0.283316 0.685018
O O2 0.968787 0.238346 0.481520
O O3 0.047705 0.413361 0.323863
O O4 0.837924 0.385838 0.024607
O O5 0.846389 0.848728 0.458209
O O6 0.772268 0.013701 0.115903
O O7 0.000000 0.000000 0.500000
O O8 0.000000 0.000000 0.000000
O O9 0.392303 0.110526 0.392942
O O10 0.340647 0.895253 0.811830
O O11 0.500000 0.000000 0.000000
O O12 0.225679 0.297240 0.619648
O O13 0.270874 0.474472 0.529364
O O14 0.151171 0.322555 0.030032
O O15 0.395600 0.311917 0.038631
O O16 0.000000 0.500000 0.500000
O O17 0.565743 0.220265 0.553053
O O18 0.584679 0.258379 0.971299
#
# Coordination Sequence:
#
# PCOD9014995 Si02
#       8
#     2   2   2   2   2   2   2   2
#     4  10  23  41  66 103 130 168 221 278 348 401
#     4  12  26  41  64 100 139 174 227 292 342 388
#     4  10  24  45  68  96 136 191 232 270 337 414
#     4  11  22  40  68  94 123 171 225 265 327 407
#     4  11  22  40  67  91 131 172 214 275 333 403
#     4  10  21  41  70  95 129 170 214 280 351 411
#     4  11  24  43  66  93 131 184 225 262 330 401
#     4  11  25  42  65  96 134 173 225 281 317 401
#
# _framework density 23.853434
#
# number of rings (size 3 to 8) (size 9 to 14) (size 15 to 20)
#    0.000    1.250    2.500    2.625    3.500    4.000 
#    0.000    1.250    0.000    0.000    0.000    0.000 
#    0.000    0.000    0.000    0.000    0.000    0.000 
#
# Total GULP energy -89281.246132 kJ/mol
# GULP energy per Si atom -5580.077883 kJ/mol
# Density = 2.379914 g / cm^3
# Si number density = 23.853434 Si / 1000 Ang^3
#
#
#
# Elastic Constant Matrix: (Units=GPa)
#
#
# Indices 1 2 3 4 5 6 
#
# 1 133.0375 22.3464 22.2461 -3.8903 3.6908 -34.2699
# 2 22.3464 55.2303 11.9797 17.3899 1.1148 -12.5109
# 3 22.2461 11.9797 56.6153 11.7399 2.0609 -13.3173
# 4 -3.8903 17.3899 11.7399 37.2991 -15.0859 -0.4285
# 5 3.6908 1.1148 2.0609 -15.0859 46.1156 -5.8590
# 6 -34.2699 -12.5109 -13.3173 -0.4285 -5.8590 38.7378
#
#
#
# Elastic Compliance Matrix: (Units=1/GPa)
#
#
# Indices 1 2 3 4 5 6 
#
# 1 0.010568 -0.003351 -0.002582 0.004262 0.001721 0.007687
# 2 -0.003351 0.024779 0.000047 -0.013580 -0.004234 0.004263
# 3 -0.002582 0.000047 0.021552 -0.008172 -0.002844 0.004620
# 4 0.004262 -0.013580 -0.008172 0.041774 0.013909 -0.000859
# 5 0.001721 -0.004234 -0.002844 0.013909 0.026756 0.003378
# 6 0.007687 0.004263 0.004620 -0.000859 0.003378 0.036082
#
#
# Mechanical properties :
#
#
# Convention : Reuss Voigt Hill
#
# Bulk Modulus (GPa) = 22.15978 39.78083 30.97030
# Shear Modulus (GPa) = 26.54968 36.98455 31.76712
#
# Velocity S-wave (km/s) = 3.33984 3.94190 3.65329
# Velocity P-wave (km/s) = 4.91760 6.11813 5.55042
#
# Compressibility (1/GPa) = 0.04512681
#
# Stress axis : x y z
#
# Youngs Moduli (GPa) = 94.62236 40.35684 46.39846
#
# Poissons Ratio (x) = 0.13525 0.11979
# Poissons Ratio (y) = 0.31712 -0.00217
# Poissons Ratio (z) = 0.24429 -0.00188
#
# Static dielectric constant tensor:
#      x y z
#    x 1.936510 0.067340 0.079310 
#    y 0.067340 2.001270 -0.084870 
#    z 0.079310 -0.084870 2.068090 
# 
# From -- ./inp_files/46338.got.cif
#   From: 2010.05.17/outbox.cif.g08.bks.cpg/sg2_24_cif.got.tgz:46338.got - 2010.06.03 11:33:40.
