data_PCOD9014705
_publ_section_title
;
Structure prediction by ZEFSAII (Michael W. Deem and Ramdas Pophale) SiO2 
 PCOD9014705
Probable space group: P -1
;
_chemical_formula_sum "Si O2"
_cell_formula_units_Z 12
_cell_length_a 4.805971
_cell_length_b 8.504276
_cell_length_c 15.787139
_cell_angle_alpha 119.692780
_cell_angle_beta 68.040463
_cell_angle_gamma 90.164600
_cell_volume 506.358087
_symmetry_space_group_name_H-M "P -1"
_symmetry_group_IT_number 2
_symmetry_cell_setting 'triclinic'
loop_
_space_group_symop_operation_xyz
x,y,z
-x,-y,-z
loop_
_atom_site_type_symbol
_atom_site_label
_atom_site_fract_x
_atom_site_fract_y
_atom_site_fract_z
Si Si1 0.326540 0.631706 0.732685
Si Si2 0.914403 0.427402 0.816998
Si Si3 0.227166 0.171060 0.051661
Si Si4 0.974398 0.656551 0.614713
Si Si5 0.280251 0.936678 0.260898
Si Si6 0.038823 0.172247 0.879412
O O1 0.220513 0.462261 0.746197
O O2 0.914948 0.862905 0.637431
O O3 0.673905 0.649613 0.704509
O O4 0.254198 0.623341 0.639375
O O5 0.972712 0.372910 0.894061
O O6 0.680594 0.628966 0.893486
O O7 0.807814 0.249581 0.743661
O O8 0.922538 0.196878 0.152677
O O9 0.091173 0.175272 0.973490
O O10 0.500000 0.000000 0.000000
O O11 0.000000 0.500000 0.500000
O O12 0.637497 0.929610 0.227676
O O13 0.218793 0.913311 0.160793
#
# Coordination Sequence:
#
# PCOD9014705 Si02
#       6
#     2   2   2   2   2   2
#     4  10  25  42  70 102 137 175 233 286 332 409
#     4   8  23  41  70  97 149 178 230 269 340 398
#     4  10  21  41  70 107 146 185 228 268 336 410
#     4  12  25  48  71  96 132 182 231 297 360 397
#     4  10  23  41  69  98 134 186 226 274 338 411
#     4  10  21  41  68  99 143 191 215 263 343 412
#
# _framework density 23.698640999999999
#
# number of rings (size 3 to 8) (size 9 to 14) (size 15 to 20)
#    2.000    0.000    0.000    3.000    2.333    2.000 
#    0.000    7.500    0.000    0.000    0.000    0.000 
#    0.000    0.000    0.000    0.000    0.000    0.000 
#
# Total GULP energy -66984.072169 kJ/mol
# GULP energy per Si atom -5582.006014 kJ/mol
# Density = 2.364470 g / cm^3
# Si number density = 23.698641 Si / 1000 Ang^3
#
#
#
# Elastic Constant Matrix: (Units=GPa)
#
#
# Indices 1 2 3 4 5 6 
#
# 1 89.6472 32.9332 11.8514 5.7981 -6.1315 -2.5222
# 2 32.9332 163.6389 44.5291 20.0934 15.6013 11.6700
# 3 11.8514 44.5291 55.8487 15.2728 5.4887 -1.1104
# 4 5.7981 20.0934 15.2728 25.0479 12.9737 3.2678
# 5 -6.1315 15.6013 5.4887 12.9737 34.3121 -2.3355
# 6 -2.5222 11.6700 -1.1104 3.2678 -2.3355 46.9628
#
#
#
# Elastic Compliance Matrix: (Units=1/GPa)
#
#
# Indices 1 2 3 4 5 6 
#
# 1 0.012792 -0.002745 0.000004 -0.003608 0.005025 0.001870
# 2 -0.002745 0.008913 -0.006050 -0.000669 -0.003502 -0.002633
# 3 0.000004 -0.006050 0.026104 -0.013513 0.003907 0.003255
# 4 -0.003608 -0.000669 -0.013513 0.061605 -0.021862 -0.005721
# 5 0.005025 -0.003502 0.003907 -0.021862 0.039597 0.004723
# 6 0.001870 -0.002633 0.003255 -0.005721 0.004723 0.022758
#
#
# Mechanical properties :
#
#
# Convention : Reuss Voigt Hill
#
# Bulk Modulus (GPa) = 33.08069 54.19581 43.63825
# Shear Modulus (GPa) = 25.07177 35.91931 30.49554
#
# Velocity S-wave (km/s) = 3.25613 3.89738 3.59110
# Velocity P-wave (km/s) = 5.30337 6.57048 5.97063
#
# Compressibility (1/GPa) = 0.03022912
#
# Stress axis : x y z
#
# Youngs Moduli (GPa) = 78.17126 112.18981 38.30799
#
# Poissons Ratio (x) = 0.30797 -0.00016
# Poissons Ratio (y) = 0.21459 0.23175
# Poissons Ratio (z) = -0.00033 0.67870
#
# Static dielectric constant tensor:
#      x y z
#    x 1.882100 0.036230 -0.020590 
#    y 0.036230 2.036250 -0.020310 
#    z -0.020590 -0.020310 1.897830 
# 
# From -- ./inp_files/339470.got.cif
#   From: 2010.05.17/outbox.cif.g08.bks.cpg/sg2_170_cif.got.tgz:339470.got - 2010.06.03 11:33:40.
