data_PCOD9014645
_publ_section_title
;
Structure prediction by ZEFSAII (Michael W. Deem and Ramdas Pophale) SiO2 
 PCOD9014645
Probable space group: P -1
;
_chemical_formula_sum "Si O2"
_cell_formula_units_Z 16
_cell_length_a 12.506491
_cell_length_b 11.530970
_cell_length_c 7.816243
_cell_angle_alpha 72.562749
_cell_angle_beta 130.456169
_cell_angle_gamma 131.512531
_cell_volume 625.199387
_symmetry_space_group_name_H-M "P -1"
_symmetry_group_IT_number 2
_symmetry_cell_setting 'triclinic'
loop_
_space_group_symop_operation_xyz
x,y,z
-x,-y,-z
loop_
_atom_site_type_symbol
_atom_site_label
_atom_site_fract_x
_atom_site_fract_y
_atom_site_fract_z
Si Si1 0.675563 0.517192 0.539511
Si Si2 0.652916 0.315900 0.124637
Si Si3 0.162691 0.358790 0.974793
Si Si4 0.971988 0.901776 0.291498
Si Si5 0.059257 0.717394 0.695433
Si Si6 0.783191 0.160301 0.825103
Si Si7 0.510272 0.813584 0.611723
Si Si8 0.699139 0.802664 0.344221
O O1 0.512287 0.331559 0.427849
O O2 0.645575 0.631631 0.375527
O O3 0.857256 0.563119 0.616246
O O4 0.727277 0.568420 0.766784
O O5 0.737073 0.498417 0.120089
O O6 0.813696 0.314552 0.239102
O O7 0.569717 0.239407 0.255639
O O8 0.482279 0.218528 0.856650
O O9 0.123830 0.203572 0.929573
O O10 0.960357 0.296472 0.839240
O O11 0.034264 0.814523 0.496812
O O12 0.819875 0.880627 0.261776
O O13 0.155904 0.084604 0.406133
O O14 0.155120 0.815996 0.925798
O O15 0.624305 0.171125 0.638067
O O16 0.703928 0.989516 0.747174
#
# Coordination Sequence:
#
# PCOD9014645 Si02
#       8
#     2   2   2   2   2   2   2   2
#     4  10  23  44  64  91 133 175 212 263 323 383
#     4  12  24  40  69 102 127 166 220 269 317 381
#     4  11  24  41  67  96 127 169 219 264 319 383
#     4  10  22  43  67  93 129 173 216 263 321 385
#     4  10  21  41  68  96 130 168 214 268 324 381
#     4  10  23  42  64  99 135 168 209 268 329 381
#     4  11  23  39  65  95 134 171 211 264 324 381
#     4  10  24  43  64  94 133 171 213 266 323 382
#
# _framework density 25.591837000000002
#
# number of rings (size 3 to 8) (size 9 to 14) (size 15 to 20)
#    0.000    1.500    0.000    4.500    0.000   12.500 
#    0.000    1.250    0.000    0.000    0.000    0.000 
#    0.000    0.000    0.000    0.000    0.000    0.000 
#
# Total GULP energy -89746.143063 kJ/mol
# GULP energy per Si atom -5609.133941 kJ/mol
# Density = 2.553359 g / cm^3
# Si number density = 25.591837 Si / 1000 Ang^3
#
#
#
# Elastic Constant Matrix: (Units=GPa)
#
#
# Indices 1 2 3 4 5 6 
#
# 1 97.6802 17.2379 32.7692 6.7417 12.7928 0.8082
# 2 17.2379 121.0183 37.1743 19.5674 8.5481 -0.1156
# 3 32.7692 37.1743 118.1207 12.3950 0.0321 3.1876
# 4 6.7417 19.5674 12.3950 41.9829 -2.0166 -2.0014
# 5 12.7928 8.5481 0.0321 -2.0166 39.1665 5.1893
# 6 0.8082 -0.1156 3.1876 -2.0014 5.1893 34.4835
#
#
#
# Elastic Compliance Matrix: (Units=1/GPa)
#
#
# Indices 1 2 3 4 5 6 
#
# 1 0.011920 -0.000295 -0.003121 -0.001019 -0.003951 0.000544
# 2 -0.000295 0.009908 -0.002639 -0.003883 -0.002318 0.000408
# 3 -0.003121 -0.002639 0.010331 -0.001296 0.001682 -0.001219
# 4 -0.001019 -0.003883 -0.001296 0.026351 0.002365 0.001304
# 5 -0.003951 -0.002318 0.001682 0.002365 0.027998 -0.004147
# 6 0.000544 0.000408 -0.001219 0.001304 -0.004147 0.029800
#
#
# Mechanical properties :
#
#
# Convention : Reuss Voigt Hill
#
# Bulk Modulus (GPa) = 49.87823 56.79801 53.33812
# Shear Modulus (GPa) = 37.00949 39.76910 38.38929
#
# Velocity S-wave (km/s) = 3.80695 3.94633 3.87726
# Velocity P-wave (km/s) = 6.23346 6.55794 6.39776
#
# Compressibility (1/GPa) = 0.02004883
#
# Stress axis : x y z
#
# Youngs Moduli (GPa) = 83.89486 100.92922 96.79893
#
# Poissons Ratio (x) = 0.02976 0.30207
# Poissons Ratio (y) = 0.02474 0.25548
# Poissons Ratio (z) = 0.26180 0.26638
#
# Static dielectric constant tensor:
#      x y z
#    x 1.996040 -0.001150 -0.012050 
#    y -0.001150 1.975480 0.021400 
#    z -0.012050 0.021400 2.009590 
# 
# From -- ./inp_files/307418.got.cif
#   From: 2010.05.17/outbox.cif.g08.bks.cpg/sg2_154_cif.got.tgz:307418.got - 2010.06.03 11:33:40.
