data_PCOD9014057
_publ_section_title
;
Structure prediction by ZEFSAII (Michael W. Deem and Ramdas Pophale) SiO2 
 PCOD9014057
Probable space group: P -1
;
_chemical_formula_sum "Si O2"
_cell_formula_units_Z 14
_cell_length_a 8.990765
_cell_length_b 12.347933
_cell_length_c 14.254260
_cell_angle_alpha 59.665915
_cell_angle_beta 31.346911
_cell_angle_gamma 51.570772
_cell_volume 643.607579
_symmetry_space_group_name_H-M "P -1"
_symmetry_group_IT_number 2
_symmetry_cell_setting 'triclinic'
loop_
_space_group_symop_operation_xyz
x,y,z
-x,-y,-z
loop_
_atom_site_type_symbol
_atom_site_label
_atom_site_fract_x
_atom_site_fract_y
_atom_site_fract_z
Si Si1 0.245406 0.198880 0.381359
Si Si2 0.744658 0.553622 0.195186
Si Si3 0.546527 0.932557 0.878457
Si Si4 0.845323 0.510617 0.477156
Si Si5 0.080471 0.871284 0.942901
Si Si6 0.304893 0.844643 0.218351
Si Si7 0.870256 0.405109 0.864211
O O1 0.327536 0.122010 0.269371
O O2 0.576012 0.168150 0.265799
O O3 0.062122 0.359715 0.383798
O O4 0.026745 0.163489 0.586117
O O5 0.508362 0.478074 0.346280
O O6 0.528301 0.716362 0.219838
O O7 0.947560 0.535600 0.187875
O O8 0.000000 0.500000 0.000000
O O9 0.755264 0.002581 0.780660
O O10 0.471574 0.829998 0.033001
O O11 0.210412 0.067364 0.996213
O O12 0.000000 0.500000 0.500000
O O13 0.923686 0.620166 0.329474
O O14 0.102685 0.737081 0.044007
O O15 0.000000 0.000000 0.000000
O O16 0.500000 0.500000 0.000000
#
# Coordination Sequence:
#
# PCOD9014057 Si02
#       7
#     2   2   2   2   2   2   2
#     4  10  22  40  66  93 135 173 231 280 347 406
#     4  11  25  42  67 102 135 177 233 286 344 420
#     4  10  21  41  66  95 133 180 222 284 345 413
#     4  11  25  43  67 101 136 179 237 286 349 418
#     4  10  22  40  66  97 130 174 228 271 340 410
#     4  10  22  41  66  96 135 172 230 282 346 412
#     4  12  23  44  71  95 138 183 222 289 348 405
#
# _framework density 21.752386999999999
#
# number of rings (size 3 to 8) (size 9 to 14) (size 15 to 20)
#    0.000    1.429    2.857    1.714    2.000    5.143 
#    0.000    4.286    0.000    0.000    0.000    0.000 
#    0.000    0.000    0.000    0.000    0.000    0.000 
#
# Total GULP energy -78081.880295 kJ/mol
# GULP energy per Si atom -5577.277164 kJ/mol
# Density = 2.170288 g / cm^3
# Si number density = 21.752387 Si / 1000 Ang^3
#
#
#
# Elastic Constant Matrix: (Units=GPa)
#
#
# Indices 1 2 3 4 5 6 
#
# 1 100.0560 21.3276 35.6110 -12.6248 -8.6045 -6.5811
# 2 21.3276 57.2877 28.9209 -10.6057 -11.1418 -10.7802
# 3 35.6110 28.9209 126.5199 -16.5047 -25.5422 0.8832
# 4 -12.6248 -10.6057 -16.5047 36.5874 -0.0933 1.2861
# 5 -8.6045 -11.1418 -25.5422 -0.0933 38.6395 2.4918
# 6 -6.5811 -10.7802 0.8832 1.2861 2.4918 29.7516
#
#
#
# Elastic Compliance Matrix: (Units=1/GPa)
#
#
# Indices 1 2 3 4 5 6 
#
# 1 0.011784 -0.002377 -0.002454 0.002211 0.000212 0.001705
# 2 -0.002377 0.022846 -0.003407 0.004014 0.003338 0.007400
# 3 -0.002454 -0.003407 0.011015 0.003246 0.005937 -0.002742
# 4 0.002211 0.004014 0.003246 0.030725 0.003857 0.000196
# 5 0.000212 0.003338 0.005937 0.003857 0.030932 -0.001677
# 6 0.001705 0.007400 -0.002742 0.000196 -0.001677 0.036884
#
#
# Mechanical properties :
#
#
# Convention : Reuss Voigt Hill
#
# Bulk Modulus (GPa) = 34.28485 50.62030 42.45257
# Shear Modulus (GPa) = 29.34553 34.19598 31.77075
#
# Velocity S-wave (km/s) = 3.67696 3.96922 3.82588
# Velocity P-wave (km/s) = 5.81569 6.65792 6.25101
#
# Compressibility (1/GPa) = 0.02916741
#
# Stress axis : x y z
#
# Youngs Moduli (GPa) = 84.86239 43.77210 90.78836
#
# Poissons Ratio (x) = 0.10403 0.22281
# Poissons Ratio (y) = 0.20169 0.30935
# Poissons Ratio (z) = 0.20827 0.14915
#
# Static dielectric constant tensor:
#      x y z
#    x 1.990860 0.002260 -0.033470 
#    y 0.002260 1.791860 -0.001770 
#    z -0.033470 -0.001770 1.805870 
# 
# From -- ./inp_files/500127.got.cif
#   From: 2010.05.17/outbox.cif.g08.bks.cpg/sg2_251_cif.got.tgz:500127.got - 2010.06.03 11:33:40.
