data_PCOD9014576
_publ_section_title
;
Structure prediction by ZEFSAII (Michael W. Deem and Ramdas Pophale) SiO2 
 PCOD9014576
Probable space group: P -1
;
_chemical_formula_sum "Si O2"
_cell_formula_units_Z 15
_cell_length_a 12.911134
_cell_length_b 20.427106
_cell_length_c 8.757347
_cell_angle_alpha 35.274469
_cell_angle_beta 44.762615
_cell_angle_gamma 28.488076
_cell_volume 635.954429
_symmetry_space_group_name_H-M "P -1"
_symmetry_group_IT_number 2
_symmetry_cell_setting 'triclinic'
loop_
_space_group_symop_operation_xyz
x,y,z
-x,-y,-z
loop_
_atom_site_type_symbol
_atom_site_label
_atom_site_fract_x
_atom_site_fract_y
_atom_site_fract_z
Si Si1 0.402372 0.445986 0.403601
Si Si2 0.770871 0.248127 0.852360
Si Si3 0.461463 0.936643 0.325297
Si Si4 0.000000 0.500000 0.000000
Si Si5 0.232294 0.846356 0.624420
Si Si6 0.958298 0.605452 0.486170
Si Si7 0.258304 0.983033 0.772790
Si Si8 0.599179 0.808461 0.988253
O O1 0.390461 0.554765 0.330721
O O2 0.608479 0.329892 0.297077
O O3 0.161273 0.578494 0.327953
O O4 0.416588 0.313518 0.715123
O O5 0.003342 0.153571 0.724414
O O6 0.802018 0.180588 0.118399
O O7 0.705089 0.174938 0.964530
O O8 0.360020 0.893352 0.413889
O O9 0.718027 0.785271 0.364651
O O10 0.359657 0.968738 0.538167
O O11 0.383136 0.110030 0.050761
O O12 0.963057 0.542310 0.768281
O O13 0.800075 0.697838 0.872758
O O14 0.000000 0.000000 0.500000
O O15 0.000000 0.500000 0.500000
O O16 0.383143 0.958163 0.834880
#
# Coordination Sequence:
#
# PCOD9014576 Si02
#       8
#     2   2   2   1   2   2   2   2
#     4  11  24  42  65  98 140 176 234 291 352 424
#     4  10  23  42  66  94 127 188 231 285 352 417
#     4  11  23  42  69  99 137 184 227 291 368 420
#     4  10  24  40  60 108 138 174 232 282 354 430
#     4  11  24  46  64  94 134 182 243 289 347 430
#     4  11  22  44  71 102 145 181 233 297 365 424
#     4  10  21  41  68  92 133 173 233 280 349 431
#     4  11  23  39  65 100 140 176 226 290 355 426
#
# _framework density 23.586594000000002
#
# number of rings (size 3 to 8) (size 9 to 14) (size 15 to 20)
#    0.000    1.333    2.667    2.400    3.733    1.067 
#    7.200    0.000    0.000    0.000    0.000    0.000 
#    0.000    0.000    0.000    0.000    0.000    0.000 
#
# Total GULP energy -83598.642266 kJ/mol
# GULP energy per Si atom -5573.242818 kJ/mol
# Density = 2.353291 g / cm^3
# Si number density = 23.586594 Si / 1000 Ang^3
#
#
#
# Elastic Constant Matrix: (Units=GPa)
#
#
# Indices 1 2 3 4 5 6 
#
# 1 108.8651 58.0875 31.5142 -11.1794 2.6734 7.4219
# 2 58.0875 179.7391 26.9690 -3.8921 -2.5891 12.3505
# 3 31.5142 26.9690 79.7816 -4.9758 -1.0170 2.1815
# 4 -11.1794 -3.8921 -4.9758 14.8114 1.9024 -7.1064
# 5 2.6734 -2.5891 -1.0170 1.9024 26.0024 -4.4018
# 6 7.4219 12.3505 2.1815 -7.1064 -4.4018 48.0651
#
#
#
# Elastic Compliance Matrix: (Units=1/GPa)
#
#
# Indices 1 2 3 4 5 6 
#
# 1 0.012948 -0.003529 -0.003453 0.008007 -0.002399 0.000028
# 2 -0.003529 0.006924 -0.001020 -0.001975 0.000921 -0.001395
# 3 -0.003453 -0.001020 0.014370 0.002108 0.000750 0.000523
# 4 0.008007 -0.001975 0.002108 0.079406 -0.004976 0.010460
# 5 -0.002399 0.000921 0.000750 -0.004976 0.039697 0.003000
# 6 0.000028 -0.001395 0.000523 0.010460 0.003000 0.022957
#
#
# Mechanical properties :
#
#
# Convention : Reuss Voigt Hill
#
# Bulk Modulus (GPa) = 54.83540 66.83634 60.83587
# Shear Modulus (GPa) = 25.20361 34.56346 29.88353
#
# Velocity S-wave (km/s) = 3.27242 3.83219 3.56332
# Velocity P-wave (km/s) = 6.13004 6.92669 6.54050
#
# Compressibility (1/GPa) = 0.01823639
#
# Stress axis : x y z
#
# Youngs Moduli (GPa) = 77.23365 144.43366 69.59105
#
# Poissons Ratio (x) = 0.50976 0.24032
# Poissons Ratio (y) = 0.27259 0.07095
# Poissons Ratio (z) = 0.26672 0.14726
#
# Static dielectric constant tensor:
#      x y z
#    x 1.869990 0.020310 -0.022000 
#    y 0.020310 1.913680 0.002230 
#    z -0.022000 0.002230 1.979830 
# 
# From -- ./inp_files/278771.got.cif
#   From: 2010.05.17/outbox.cif.g08.bks.cpg/sg2_140_cif.got.tgz:278771.got - 2010.06.03 11:33:40.
