data_PCOD9014768
_publ_section_title
;
Structure prediction by ZEFSAII (Michael W. Deem and Ramdas Pophale) SiO2 
 PCOD9014768
Probable space group: P -1
;
_chemical_formula_sum "Si O2"
_cell_formula_units_Z 14
_cell_length_a 16.478667
_cell_length_b 9.008428
_cell_length_c 8.686671
_cell_angle_alpha 66.156375
_cell_angle_beta 145.184709
_cell_angle_gamma 102.129363
_cell_volume 654.826927
_symmetry_space_group_name_H-M "P -1"
_symmetry_group_IT_number 2
_symmetry_cell_setting 'triclinic'
loop_
_space_group_symop_operation_xyz
x,y,z
-x,-y,-z
loop_
_atom_site_type_symbol
_atom_site_label
_atom_site_fract_x
_atom_site_fract_y
_atom_site_fract_z
Si Si1 0.922481 0.682511 0.858578
Si Si2 0.370651 0.644144 0.170630
Si Si3 0.927942 0.476790 0.235018
Si Si4 0.351382 0.604770 0.801470
Si Si5 0.136022 0.895286 0.154080
Si Si6 0.651083 0.020697 0.801780
Si Si7 0.780563 0.708241 0.341039
O O1 0.776006 0.734820 0.507476
O O2 0.904225 0.647097 0.025457
O O3 0.000000 0.500000 0.000000
O O4 0.040875 0.786842 0.964376
O O5 0.500000 0.500000 0.500000
O O6 0.363451 0.810039 0.191344
O O7 0.222578 0.578966 0.976806
O O8 0.386765 0.659154 0.004772
O O9 0.000000 0.500000 0.500000
O O10 0.048987 0.324027 0.418506
O O11 0.258535 0.767251 0.499602
O O12 0.258131 0.462923 0.703347
O O13 0.500000 0.500000 0.000000
O O14 0.226335 0.981635 0.139121
O O15 0.000000 0.000000 0.000000
O O16 0.500000 0.000000 0.500000
O O17 0.695647 0.864892 0.050653
#
# Coordination Sequence:
#
# PCOD9014768 Si02
#       7
#     2   2   2   2   2   2   2
#     4  10  21  41  69 106 140 187 238 308 369 436
#     4  12  27  46  78 108 149 202 251 308 388 457
#     4  11  22  42  76 110 142 188 255 300 375 446
#     4  12  26  49  74 107 149 202 252 311 384 458
#     4  12  27  46  75 111 152 192 254 317 378 446
#     4  12  29  50  71 111 156 202 250 316 382 454
#     4  11  24  44  74 101 148 189 248 308 370 448
#
# _framework density 21.379694000000001
#
# number of rings (size 3 to 8) (size 9 to 14) (size 15 to 20)
#    0.000    0.571    4.286    4.286    8.000    1.143 
#    0.000    1.429    0.000    0.000    0.000    0.000 
#    0.000    0.000    0.000    0.000    0.000    0.000 
#
# Total GULP energy -78084.642743 kJ/mol
# GULP energy per Si atom -5577.474482 kJ/mol
# Density = 2.133103 g / cm^3
# Si number density = 21.379694 Si / 1000 Ang^3
#
#
#
# Elastic Constant Matrix: (Units=GPa)
#
#
# Indices 1 2 3 4 5 6 
#
# 1 105.2454 33.0986 62.1884 13.0090 -5.7375 -6.2227
# 2 33.0986 68.9690 57.7177 22.4845 -10.3812 4.9008
# 3 62.1884 57.7177 187.4156 1.1173 -29.0240 -7.7837
# 4 13.0090 22.4845 1.1173 48.6529 3.9599 -0.7479
# 5 -5.7375 -10.3812 -29.0240 3.9599 52.3790 0.4372
# 6 -6.2227 4.9008 -7.7837 -0.7479 0.4372 30.5727
#
#
#
# Elastic Compliance Matrix: (Units=1/GPa)
#
#
# Indices 1 2 3 4 5 6 
#
# 1 0.012726 -0.003018 -0.003336 -0.001822 -0.000933 0.002193
# 2 -0.003018 0.026363 -0.007040 -0.011478 0.001919 -0.006941
# 3 -0.003336 -0.007040 0.009173 0.003733 0.003017 0.002833
# 4 -0.001822 -0.011478 0.003733 0.026505 -0.002436 0.003103
# 5 -0.000933 0.001919 0.003017 -0.002436 0.021226 -0.000093
# 6 0.002193 -0.006941 0.002833 0.003103 -0.000093 0.035067
#
#
# Mechanical properties :
#
#
# Convention : Reuss Voigt Hill
#
# Bulk Modulus (GPa) = 46.56725 74.18216 60.37471
# Shear Modulus (GPa) = 30.30183 40.22929 35.26556
#
# Velocity S-wave (km/s) = 3.76881 4.34252 4.06580
# Velocity P-wave (km/s) = 6.38490 7.74055 7.09517
#
# Compressibility (1/GPa) = 0.02147432
#
# Stress axis : x y z
#
# Youngs Moduli (GPa) = 78.58049 37.93163 109.01164
#
# Poissons Ratio (x) = 0.11448 0.36364
# Poissons Ratio (y) = 0.23716 0.76746
# Poissons Ratio (z) = 0.26213 0.26705
#
# Static dielectric constant tensor:
#      x y z
#    x 1.997260 0.002810 -0.121500 
#    y 0.002810 1.748830 0.066950 
#    z -0.121500 0.066950 1.755590 
# 
# From -- ./inp_files/328632.got.cif
#   From: 2010.05.17/outbox.cif.g08.bks.cpg/sg2_165_cif.got.tgz:328632.got - 2010.06.03 11:33:40.
