data_PCOD9014231
_publ_section_title
;
Structure prediction by ZEFSAII (Michael W. Deem and Ramdas Pophale) SiO2 
 PCOD9014231
Probable space group: P -1
;
_chemical_formula_sum "Si O2"
_cell_formula_units_Z 16
_cell_length_a 9.753295
_cell_length_b 11.364351
_cell_length_c 10.481143
_cell_angle_alpha 102.841868
_cell_angle_beta 83.403602
_cell_angle_gamma 39.285435
_cell_volume 635.033296
_symmetry_space_group_name_H-M "P -1"
_symmetry_group_IT_number 2
_symmetry_cell_setting 'triclinic'
loop_
_space_group_symop_operation_xyz
x,y,z
-x,-y,-z
loop_
_atom_site_type_symbol
_atom_site_label
_atom_site_fract_x
_atom_site_fract_y
_atom_site_fract_z
Si Si1 0.604164 0.932106 0.709427
Si Si2 0.775422 0.342146 0.936289
Si Si3 0.742843 0.625145 0.085729
Si Si4 0.062452 0.688922 0.370244
Si Si5 0.209558 0.859586 0.779050
Si Si6 0.856325 0.357679 0.364793
Si Si7 0.583141 0.743310 0.849909
Si Si8 0.452045 0.836206 0.516722
O O1 0.497288 0.926974 0.835685
O O2 0.593488 0.840949 0.576566
O O3 0.869470 0.786008 0.691113
O O4 0.416941 0.176005 0.757108
O O5 0.853476 0.318439 0.776614
O O6 0.500000 0.500000 0.000000
O O7 0.791033 0.448562 0.050025
O O8 0.958374 0.106275 0.901148
O O9 0.591534 0.744773 0.999275
O O10 0.000000 0.500000 0.000000
O O11 0.190630 0.634577 0.476019
O O12 0.148943 0.487527 0.291364
O O13 0.779701 0.933377 0.472833
O O14 0.167885 0.749883 0.732109
O O15 0.410364 0.757440 0.833448
O O16 0.311078 0.850954 0.637328
O O17 0.662338 0.593685 0.387905
#
# Coordination Sequence:
#
# PCOD9014231 Si02
#       8
#     2   2   2   2   2   2   2   2
#     4  11  22  39  64  98 129 166 216 277 313 385
#     4  10  22  42  64  96 133 165 220 275 315 384
#     4  11  22  42  68  93 130 169 217 269 326 393
#     4  10  22  40  66  90 128 178 209 259 335 377
#     4  10  21  41  67  87 130 171 213 264 328 387
#     4  12  23  41  64  96 134 167 222 265 318 391
#     4  10  21  42  66  89 128 175 213 259 337 383
#     4  10  22  40  63  93 132 171 211 262 322 382
#
# _framework density 25.195527999999999
#
# number of rings (size 3 to 8) (size 9 to 14) (size 15 to 20)
#    0.000    1.500    2.500    4.875    0.000    2.500 
#    4.500    8.125    0.000    0.000    0.000    0.000 
#    0.000    0.000    0.000    0.000    0.000    0.000 
#
# Total GULP energy -89508.168108 kJ/mol
# GULP energy per Si atom -5594.260507 kJ/mol
# Density = 2.513818 g / cm^3
# Si number density = 25.195528 Si / 1000 Ang^3
#
#
#
# Elastic Constant Matrix: (Units=GPa)
#
#
# Indices 1 2 3 4 5 6 
#
# 1 165.5523 42.4400 59.7637 40.1315 30.6636 -1.1229
# 2 42.4400 138.4093 36.6214 42.2960 15.4003 13.6548
# 3 59.7637 36.6214 124.3279 45.5084 20.4096 9.6661
# 4 40.1315 42.2960 45.5084 66.4540 4.5520 -2.3475
# 5 30.6636 15.4003 20.4096 4.5520 50.4397 12.3503
# 6 -1.1229 13.6548 9.6661 -2.3475 12.3503 38.0711
#
#
#
# Elastic Compliance Matrix: (Units=1/GPa)
#
#
# Indices 1 2 3 4 5 6 
#
# 1 0.008590 -0.000987 -0.002390 -0.002539 -0.004327 0.002461
# 2 -0.000987 0.009709 0.000169 -0.005755 -0.001039 -0.003572
# 3 -0.002390 0.000169 0.012320 -0.007054 -0.002219 -0.002974
# 4 -0.002539 -0.005755 -0.007054 0.025038 0.002815 0.004411
# 5 -0.004327 -0.001039 -0.002219 0.002815 0.025176 -0.007185
# 6 0.002461 -0.003572 -0.002974 0.004411 -0.007185 0.030979
#
#
# Mechanical properties :
#
#
# Convention : Reuss Voigt Hill
#
# Bulk Modulus (GPa) = 41.31633 78.43774 59.87703
# Shear Modulus (GPa) = 39.58980 50.29060 44.94020
#
# Velocity S-wave (km/s) = 3.96827 4.47252 4.22792
# Velocity P-wave (km/s) = 6.11801 7.60726 6.90292
#
# Compressibility (1/GPa) = 0.02420350
#
# Stress axis : x y z
#
# Youngs Moduli (GPa) = 116.41642 102.99360 81.16995
#
# Poissons Ratio (x) = 0.10165 0.19399
# Poissons Ratio (y) = 0.11489 -0.01373
# Poissons Ratio (z) = 0.27823 -0.01742
#
# Static dielectric constant tensor:
#      x y z
#    x 1.934840 0.023670 -0.067690 
#    y 0.023670 2.041170 0.004870 
#    z -0.067690 0.004870 2.052730 
# 
# From -- ./inp_files/500715.got.cif
#   From: 2010.05.17/outbox.cif.g08.bks.cpg/sg2_251_cif.got.tgz:500715.got - 2010.06.03 11:33:40.
