data_PCOD9014389
_publ_section_title
;
Structure prediction by ZEFSAII (Michael W. Deem and Ramdas Pophale) SiO2 
 PCOD9014389
Probable space group: P -1
;
_chemical_formula_sum "Si O2"
_cell_formula_units_Z 14
_cell_length_a 13.029840
_cell_length_b 11.890865
_cell_length_c 11.745578
_cell_angle_alpha 43.841003
_cell_angle_beta 146.272258
_cell_angle_gamma 149.270238
_cell_volume 516.197817
_symmetry_space_group_name_H-M "P -1"
_symmetry_group_IT_number 2
_symmetry_cell_setting 'triclinic'
loop_
_space_group_symop_operation_xyz
x,y,z
-x,-y,-z
loop_
_atom_site_type_symbol
_atom_site_label
_atom_site_fract_x
_atom_site_fract_y
_atom_site_fract_z
Si Si1 0.701166 0.885273 0.951180
Si Si2 0.500000 0.500000 0.000000
Si Si3 0.593045 0.233332 0.448793
Si Si4 0.209141 0.464768 0.177828
Si Si5 0.000000 0.000000 0.500000
Si Si6 0.915633 0.609550 0.131253
Si Si7 0.328991 0.998696 0.926764
Si Si8 0.397592 0.218201 0.521464
O O1 0.763542 0.736403 0.137143
O O2 0.512529 0.723974 0.786283
O O3 0.926342 0.130728 0.937090
O O4 0.594904 0.929497 0.924719
O O5 0.325492 0.482546 0.955499
O O6 0.456521 0.191562 0.470513
O O7 0.889643 0.395593 0.622898
O O8 0.500000 0.000000 0.500000
O O9 0.359010 0.388223 0.350462
O O10 0.353734 0.656980 0.263113
O O11 0.953882 0.243616 0.160591
O O12 0.151185 0.501044 0.974263
O O13 0.154749 0.021373 0.512550
O O14 0.737968 0.864757 0.285521
O O15 0.500000 0.000000 0.000000
#
# Coordination Sequence:
#
# PCOD9014389 Si02
#       8
#     2   1   2   2   1   2   2   2
#     4  10  24  46  66 100 135 181 233 275 355 405
#     4  12  24  40  68  96 136 182 226 286 326 430
#     4  10  23  43  68  95 137 186 219 278 352 412
#     4   9  21  42  65  95 129 179 223 285 349 398
#     4  10  24  38  68 106 124 174 228 284 350 394
#     4  10  23  42  66  99 135 181 225 282 349 404
#     4  10  23  44  69  97 138 177 227 300 339 414
#     4  10  21  41  67  96 132 171 232 281 340 421
#
# _framework density 27.121386999999999
#
# number of rings (size 3 to 8) (size 9 to 14) (size 15 to 20)
#    0.000    2.000    0.000    1.286    8.000    8.000 
#    2.571    0.000    0.000    0.000    0.000    0.000 
#    0.000    0.000    0.000    0.000    0.000    0.000 
#
# Total GULP energy -77934.776029 kJ/mol
# GULP energy per Si atom -5566.769716 kJ/mol
# Density = 2.705966 g / cm^3
# Si number density = 27.121387 Si / 1000 Ang^3
#
#
#
# Elastic Constant Matrix: (Units=GPa)
#
#
# Indices 1 2 3 4 5 6 
#
# 1 232.0673 83.5845 28.1869 26.7178 -5.7951 -13.4131
# 2 83.5845 109.7046 17.4867 7.7675 -6.4919 -3.3191
# 3 28.1869 17.4867 115.6611 23.0645 -6.4017 -18.7284
# 4 26.7178 7.7675 23.0645 30.8696 -6.2640 -4.8377
# 5 -5.7951 -6.4919 -6.4017 -6.2640 49.9022 6.5245
# 6 -13.4131 -3.3191 -18.7284 -4.8377 6.5245 44.2546
#
#
#
# Elastic Compliance Matrix: (Units=1/GPa)
#
#
# Indices 1 2 3 4 5 6 
#
# 1 0.006566 -0.004706 0.000201 -0.004559 -0.000567 0.001307
# 2 -0.004706 0.012815 -0.001256 0.001902 0.001327 -0.000984
# 3 0.000201 -0.001256 0.010869 -0.007421 -0.000172 0.003781
# 4 -0.004559 0.001902 -0.007421 0.042182 0.004110 -0.000375
# 5 -0.000567 0.001327 -0.000172 0.004110 0.021005 -0.002793
# 6 0.001307 -0.000984 0.003781 -0.000375 -0.002793 0.024890
#
#
# Mechanical properties :
#
#
# Convention : Reuss Voigt Hill
#
# Bulk Modulus (GPa) = 53.39412 79.54989 66.47201
# Shear Modulus (GPa) = 36.74001 46.88359 41.81180
#
# Velocity S-wave (km/s) = 3.68455 4.16222 3.93065
# Velocity P-wave (km/s) = 6.15070 7.24524 6.72029
#
# Compressibility (1/GPa) = 0.01872865
#
# Stress axis : x y z
#
# Youngs Moduli (GPa) = 152.30249 78.03331 92.00060
#
# Poissons Ratio (x) = 0.36721 -0.01847
# Poissons Ratio (y) = 0.71670 0.11554
# Poissons Ratio (z) = -0.03058 0.09800
#
# Static dielectric constant tensor:
#      x y z
#    x 2.028180 0.074220 -0.124960 
#    y 0.074220 2.752560 -0.502920 
#    z -0.124960 -0.502920 2.697190 
# 
# From -- ./inp_files/260895.got.cif
#   From: 2010.05.17/outbox.cif.g08.bks.cpg/sg2_131_cif.got.tgz:260895.got - 2010.06.03 11:33:40.
