data_PCOD9014418
_publ_section_title
;
Structure prediction by ZEFSAII (Michael W. Deem and Ramdas Pophale) SiO2 
 PCOD9014418
Probable space group: P -1
;
_chemical_formula_sum "Si O2"
_cell_formula_units_Z 16
_cell_length_a 23.213595
_cell_length_b 7.966939
_cell_length_c 9.229980
_cell_angle_alpha 52.841237
_cell_angle_beta 32.187447
_cell_angle_gamma 51.938567
_cell_volume 702.033216
_symmetry_space_group_name_H-M "P -1"
_symmetry_group_IT_number 2
_symmetry_cell_setting 'triclinic'
loop_
_space_group_symop_operation_xyz
x,y,z
-x,-y,-z
loop_
_atom_site_type_symbol
_atom_site_label
_atom_site_fract_x
_atom_site_fract_y
_atom_site_fract_z
Si Si1 0.403773 0.145783 0.730406
Si Si2 0.898262 0.009264 0.405794
Si Si3 0.840304 0.791601 0.918582
Si Si4 0.332389 0.650745 0.288131
Si Si5 0.780874 0.725952 0.378540
Si Si6 0.610690 0.860303 0.907461
Si Si7 0.981978 0.659670 0.168240
Si Si8 0.519973 0.475420 0.216730
O O1 0.388612 0.073106 0.963292
O O2 0.453453 0.357405 0.525689
O O3 0.500000 0.000000 0.500000
O O4 0.281488 0.202359 0.890829
O O5 0.777137 0.162755 0.546613
O O6 0.894619 0.935438 0.619193
O O7 0.929321 0.792069 0.354660
O O8 0.978117 0.161710 0.107688
O O9 0.919859 0.547619 0.889313
O O10 0.816198 0.860144 0.101749
O O11 0.290184 0.430547 0.459649
O O12 0.423900 0.607094 0.242921
O O13 0.393741 0.684276 0.991064
O O14 0.889149 0.588429 0.304959
O O15 0.709406 0.868588 0.582757
O O16 0.593685 0.617290 0.060423
O O17 0.500000 0.000000 0.000000
#
# Coordination Sequence:
#
# PCOD9014418 Si02
#       8
#     2   2   2   2   2   2   2   2
#     4  12  24  43  69 102 135 176 226 276 336 412
#     4  11  24  42  69  98 128 182 232 273 339 398
#     4  12  24  43  71  97 135 176 228 278 335 400
#     4  10  21  41  67  97 133 181 219 278 340 396
#     4  11  23  45  66  96 137 179 221 281 339 392
#     4  11  26  41  67 100 135 176 221 279 340 406
#     4  11  25  45  67  96 139 177 227 285 335 395
#     4  10  22  40  67  95 139 176 221 277 343 396
#
# _framework density 22.790942999999999
#
# number of rings (size 3 to 8) (size 9 to 14) (size 15 to 20)
#    0.000    1.000    2.500    3.375    7.000    0.500 
#    0.000    0.000    0.000    0.000    0.000    0.000 
#    0.000    0.000    0.000    0.000    0.000    0.000 
#
# Total GULP energy -89420.664528 kJ/mol
# GULP energy per Si atom -5588.791533 kJ/mol
# Density = 2.273907 g / cm^3
# Si number density = 22.790943 Si / 1000 Ang^3
#
#
#
# Elastic Constant Matrix: (Units=GPa)
#
#
# Indices 1 2 3 4 5 6 
#
# 1 112.7235 27.4326 40.7899 25.3086 22.4676 -3.3821
# 2 27.4326 60.3569 28.9070 27.9874 19.9069 -0.1444
# 3 40.7899 28.9070 126.9636 14.4031 42.2994 -7.6627
# 4 25.3086 27.9874 14.4031 45.7767 0.3114 -5.8545
# 5 22.4676 19.9069 42.2994 0.3114 45.9986 1.4659
# 6 -3.3821 -0.1444 -7.6627 -5.8545 1.4659 31.1099
#
#
#
# Elastic Compliance Matrix: (Units=1/GPa)
#
#
# Indices 1 2 3 4 5 6 
#
# 1 0.011632 -0.000704 -0.001702 -0.005440 -0.003774 -0.000004
# 2 -0.000704 0.029070 -0.000844 -0.017412 -0.011251 -0.002896
# 3 -0.001702 -0.000844 0.012475 -0.002015 -0.010357 0.002993
# 4 -0.005440 -0.017412 -0.002015 0.036717 0.011631 0.005193
# 5 -0.003774 -0.011251 -0.010357 0.011631 0.037981 -0.002614
# 6 -0.000004 -0.002896 0.002993 0.005193 -0.002614 0.033968
#
#
# Mechanical properties :
#
#
# Convention : Reuss Voigt Hill
#
# Bulk Modulus (GPa) = 21.42400 54.92256 38.17328
# Shear Modulus (GPa) = 27.18829 38.10467 32.64648
#
# Velocity S-wave (km/s) = 3.45765 4.09335 3.78885
# Velocity P-wave (km/s) = 5.03598 6.81846 5.99385
#
# Compressibility (1/GPa) = 0.04667662
#
# Stress axis : x y z
#
# Youngs Moduli (GPa) = 85.96843 34.39966 80.16043
#
# Poissons Ratio (x) = 0.02423 0.13647
# Poissons Ratio (y) = 0.06055 0.06762
# Poissons Ratio (z) = 0.14635 0.02902
#
# Static dielectric constant tensor:
#      x y z
#    x 1.845320 0.063720 -0.012410 
#    y 0.063720 1.934440 -0.047060 
#    z -0.012410 -0.047060 1.886190 
# 
# From -- ./inp_files/299464.got.cif
#   From: 2010.05.17/outbox.cif.g08.bks.cpg/sg2_150_cif.got.tgz:299464.got - 2010.06.03 11:33:40.
