data_PCOD9014135
_publ_section_title
;
Structure prediction by ZEFSAII (Michael W. Deem and Ramdas Pophale) SiO2 
 PCOD9014135
Probable space group: P -1
;
_chemical_formula_sum "Si O2"
_cell_formula_units_Z 13
_cell_length_a 4.953685
_cell_length_b 5.650130
_cell_length_c 16.113717
_cell_angle_alpha 92.111534
_cell_angle_beta 77.150645
_cell_angle_gamma 94.108053
_cell_volume 438.481041
_symmetry_space_group_name_H-M "P -1"
_symmetry_group_IT_number 2
_symmetry_cell_setting 'triclinic'
loop_
_space_group_symop_operation_xyz
x,y,z
-x,-y,-z
loop_
_atom_site_type_symbol
_atom_site_label
_atom_site_fract_x
_atom_site_fract_y
_atom_site_fract_z
Si Si1 0.650989 0.910096 0.608806
Si Si2 0.500000 0.500000 0.000000
Si Si3 0.136365 0.319480 0.550740
Si Si4 0.937530 0.466663 0.134822
Si Si5 0.920823 0.554220 0.710193
Si Si6 0.678624 0.072153 0.047367
Si Si7 0.564978 0.853782 0.227959
O O1 0.613093 0.782389 0.520056
O O2 0.761869 0.724869 0.664319
O O3 0.417769 0.029210 0.679892
O O4 0.902174 0.108669 0.580265
O O5 0.758732 0.504753 0.918925
O O6 0.467626 0.184420 0.988733
O O7 0.000000 0.500000 0.500000
O O8 0.168479 0.457222 0.636838
O O9 0.962854 0.314048 0.214148
O O10 0.817484 0.700942 0.181771
O O11 0.750317 0.372587 0.069186
O O12 0.700469 0.337878 0.748088
O O13 0.554435 0.020392 0.149598
O O14 0.000000 0.000000 0.000000
#
# Coordination Sequence:
#
# PCOD9014135 Si02
#       7
#     2   1   2   2   2   2   2
#     4   9  17  36  66  97 134 182 227 275 334 399
#     4  12  28  48  68  96 132 172 226 286 348 412
#     4   8  16  32  63 100 135 178 226 277 331 394
#     4  12  26  44  66  98 135 174 226 286 343 408
#     4  10  21  41  66  98 137 178 228 281 335 400
#     4  12  27  47  70  96 129 175 227 285 349 411
#     4  11  24  42  67  96 132 176 227 281 338 405
#
# _framework density 29.647805999999999
#
# number of rings (size 3 to 8) (size 9 to 14) (size 15 to 20)
#    0.000    1.538    0.000    5.077    0.000    6.154 
#    0.000    0.769    0.000   37.846    0.000    0.000 
#    0.000    0.000    0.000    0.000    0.000    6.154 
#
# Total GULP energy -72779.667174 kJ/mol
# GULP energy per Si atom -5598.435936 kJ/mol
# Density = 2.958033 g / cm^3
# Si number density = 29.647806 Si / 1000 Ang^3
#
#
#
# Elastic Constant Matrix: (Units=GPa)
#
#
# Indices 1 2 3 4 5 6 
#
# 1 147.3623 56.6285 85.1213 18.6256 -14.2105 4.9820
# 2 56.6285 167.9249 74.5471 -19.3742 -18.1176 -17.5845
# 3 85.1213 74.5471 307.9317 33.3586 -36.5104 2.6762
# 4 18.6256 -19.3742 33.3586 82.3148 -9.8653 -5.5409
# 5 -14.2105 -18.1176 -36.5104 -9.8653 51.5817 9.3831
# 6 4.9820 -17.5845 2.6762 -5.5409 9.3831 64.5946
#
#
#
# Elastic Compliance Matrix: (Units=1/GPa)
#
#
# Indices 1 2 3 4 5 6 
#
# 1 0.009107 -0.002759 -0.001565 -0.002147 0.000316 -0.001619
# 2 -0.002759 0.008392 -0.001523 0.003553 0.001302 0.002676
# 3 -0.001565 -0.001523 0.004478 -0.001634 0.002058 -0.000918
# 4 -0.002147 0.003553 -0.001634 0.014504 0.001879 0.002172
# 5 0.000316 0.001302 0.002058 0.001879 0.022261 -0.002828
# 6 -0.001619 0.002676 -0.000918 0.002172 -0.002828 0.016970
#
#
# Mechanical properties :
#
#
# Convention : Reuss Voigt Hill
#
# Bulk Modulus (GPa) = 97.25412 117.31252 107.28332
# Shear Modulus (GPa) = 55.04522 66.82636 60.93579
#
# Velocity S-wave (km/s) = 4.31355 4.75279 4.53848
# Velocity P-wave (km/s) = 7.59495 8.35304 7.98300
#
# Compressibility (1/GPa) = 0.01028234
#
# Stress axis : x y z
#
# Youngs Moduli (GPa) = 109.80433 119.15865 223.32406
#
# Poissons Ratio (x) = 0.32880 0.34959
# Poissons Ratio (y) = 0.30299 0.34003
# Poissons Ratio (z) = 0.17189 0.18143
#
# Static dielectric constant tensor:
#      x y z
#    x 1.234070 0.548240 -0.412990 
#    y 0.548240 2.095450 0.365310 
#    z -0.412990 0.365310 1.959130 
# 
# From -- ./inp_files/102814.got.cif
#   From: 2010.05.17/outbox.cif.g08.bks.cpg/sg2_52_cif.got.tgz:102814.got - 2010.06.03 11:33:40.
