data_PCOD9014291
_publ_section_title
;
Structure prediction by ZEFSAII (Michael W. Deem and Ramdas Pophale) SiO2 
 PCOD9014291
Probable space group: P -1
;
_chemical_formula_sum "Si O2"
_cell_formula_units_Z 14
_cell_length_a 12.365410
_cell_length_b 8.187671
_cell_length_c 13.171263
_cell_angle_alpha 132.731067
_cell_angle_beta 144.826999
_cell_angle_gamma 56.249073
_cell_volume 564.251632
_symmetry_space_group_name_H-M "P -1"
_symmetry_group_IT_number 2
_symmetry_cell_setting 'triclinic'
loop_
_space_group_symop_operation_xyz
x,y,z
-x,-y,-z
loop_
_atom_site_type_symbol
_atom_site_label
_atom_site_fract_x
_atom_site_fract_y
_atom_site_fract_z
Si Si1 0.926971 0.866439 0.101874
Si Si2 0.773545 0.296036 0.097973
Si Si3 0.675347 0.731457 0.658734
Si Si4 0.658326 0.771887 0.219745
Si Si5 0.346536 0.754701 0.569710
Si Si6 0.259806 0.810600 0.196012
Si Si7 0.366348 0.336309 0.078502
O O1 0.133001 0.812692 0.199622
O O2 0.881153 0.128066 0.183509
O O3 0.805351 0.797784 0.881091
O O4 0.842070 0.726232 0.069097
O O5 0.772901 0.549973 0.241116
O O6 0.550309 0.232041 0.892725
O O7 0.843495 0.258265 0.019651
O O8 0.469669 0.724425 0.549727
O O9 0.741860 0.484125 0.575775
O O10 0.680726 0.935811 0.671100
O O11 0.755285 0.008050 0.414742
O O12 0.616870 0.737325 0.054355
O O13 0.491702 0.783682 0.787272
O O14 0.398741 0.600985 0.224294
#
# Coordination Sequence:
#
# PCOD9014291 Si02
#       7
#     2   2   2   2   2   2   2
#     4  10  18  33  51  73  95 126 165 198 231 276
#     4   9  17  28  49  73  91 122 163 195 240 270
#     4   9  18  31  49  71  96 129 159 192 242 282
#     4  10  17  30  48  73 100 120 157 202 240 285
#     4  10  18  31  48  72 105 122 151 200 244 291
#     4  10  18  32  51  72  97 125 165 200 226 280
#     4  10  20  29  49  77  97 126 155 196 248 278
#
# _framework density 24.811624999999999
#
# number of rings (size 3 to 8) (size 9 to 14) (size 15 to 20)
#    0.000    2.286    4.286    2.571    0.000    0.571 
#    0.000    0.000    0.000    8.571    0.000    0.000 
#    0.000    0.000    0.000    0.000    0.000    0.000 
#
# Total GULP energy -78215.469542 kJ/mol
# GULP energy per Si atom -5586.819253 kJ/mol
# Density = 2.475515 g / cm^3
# Si number density = 24.811625 Si / 1000 Ang^3
#
#
#
# Elastic Constant Matrix: (Units=GPa)
#
#
# Indices 1 2 3 4 5 6 
#
# 1 98.7948 7.6599 15.5281 2.9981 -2.0958 5.7032
# 2 7.6599 129.5369 57.5247 56.4892 3.2989 -8.0351
# 3 15.5281 57.5247 73.6722 44.9836 -5.7113 -4.9629
# 4 2.9981 56.4892 44.9836 66.4113 -0.1300 -8.6521
# 5 -2.0958 3.2989 -5.7113 -0.1300 18.8791 8.1645
# 6 5.7032 -8.0351 -4.9629 -8.6521 8.1645 24.3451
#
#
#
# Elastic Compliance Matrix: (Units=1/GPa)
#
#
# Indices 1 2 3 4 5 6 
#
# 1 0.010799 -0.000055 -0.003055 0.001199 0.001730 -0.003325
# 2 -0.000055 0.014237 -0.007157 -0.006909 -0.005908 0.002779
# 3 -0.003055 -0.007157 0.028888 -0.013914 0.011531 -0.004570
# 4 0.001199 -0.006909 -0.013914 0.031302 -0.006000 0.007739
# 5 0.001730 -0.005908 0.011531 -0.006000 0.068499 -0.025110
# 6 -0.003325 0.002779 -0.004570 0.007739 -0.025110 0.053012
#
#
# Mechanical properties :
#
#
# Convention : Reuss Voigt Hill
#
# Bulk Modulus (GPa) = 29.94931 51.49215 40.72073
# Shear Modulus (GPa) = 20.97302 36.67983 28.82643
#
# Velocity S-wave (km/s) = 2.91054 3.84908 3.41223
# Velocity P-wave (km/s) = 4.83652 6.36806 5.65438
#
# Compressibility (1/GPa) = 0.03338975
#
# Stress axis : x y z
#
# Youngs Moduli (GPa) = 92.60390 70.23770 34.61630
#
# Poissons Ratio (x) = 0.00386 0.10575
# Poissons Ratio (y) = 0.00509 0.24776
# Poissons Ratio (z) = 0.28289 0.50271
#
# Static dielectric constant tensor:
#      x y z
#    x 1.935130 -0.008570 0.048440 
#    y -0.008570 2.000120 0.005660 
#    z 0.048440 0.005660 2.030140 
# 
# From -- ./inp_files/162963.got.cif
#   From: 2010.05.17/outbox.cif.g08.bks.cpg/sg2_82_cif.got.tgz:162963.got - 2010.06.03 11:33:40.
