data_PCOD9014462
_publ_section_title
;
Structure prediction by ZEFSAII (Michael W. Deem and Ramdas Pophale) SiO2 
 PCOD9014462
Probable space group: P -1
;
_chemical_formula_sum "Si O2"
_cell_formula_units_Z 12
_cell_length_a 17.199141
_cell_length_b 5.356525
_cell_length_c 7.241237
_cell_angle_alpha 66.254913
_cell_angle_beta 111.054176
_cell_angle_gamma 129.665334
_cell_volume 465.091636
_symmetry_space_group_name_H-M "P -1"
_symmetry_group_IT_number 2
_symmetry_cell_setting 'triclinic'
loop_
_space_group_symop_operation_xyz
x,y,z
-x,-y,-z
loop_
_atom_site_type_symbol
_atom_site_label
_atom_site_fract_x
_atom_site_fract_y
_atom_site_fract_z
Si Si1 0.000881 0.860343 0.240205
Si Si2 0.878317 0.407254 0.734242
Si Si3 0.183519 0.796320 0.841186
Si Si4 0.726608 0.564040 0.507021
Si Si5 0.554643 0.328023 0.160080
Si Si6 0.346073 0.667410 0.104220
O O1 0.070939 0.725144 0.309964
O O2 0.886048 0.531604 0.248749
O O3 0.047657 0.185627 0.310189
O O4 0.000000 0.000000 0.000000
O O5 0.771028 0.340634 0.601179
O O6 0.866153 0.270721 0.976104
O O7 0.203265 0.105063 0.651886
O O8 0.288868 0.839607 0.957665
O O9 0.613989 0.403013 0.378306
O O10 0.718230 0.596498 0.710816
O O11 0.462570 0.936624 0.186496
O O12 0.500000 0.500000 0.000000
O O13 0.642192 0.455663 0.043036
#
# Coordination Sequence:
#
# PCOD9014462 Si02
#       6
#     2   2   2   2   2   2
#     4  10  21  43  71  99 143 190 233 289 347 416
#     4  10  24  43  68 105 141 188 239 286 349 421
#     4  10  21  41  67  99 137 183 231 288 352 412
#     4  11  24  43  70 104 138 181 233 293 352 421
#     4  11  23  46  71  94 136 182 229 290 357 421
#     4  10  24  45  66 102 134 178 236 288 352 423
#
# _framework density 25.801369999999999
#
# number of rings (size 3 to 8) (size 9 to 14) (size 15 to 20)
#    0.000    1.667    1.667    2.500    0.000    8.667 
#    3.000    0.000    0.000    0.000    0.000    0.000 
#    0.000    0.000    0.000    0.000    0.000    0.000 
#
# Total GULP energy -67158.219187 kJ/mol
# GULP energy per Si atom -5596.518266 kJ/mol
# Density = 2.574264 g / cm^3
# Si number density = 25.801370 Si / 1000 Ang^3
#
#
#
# Elastic Constant Matrix: (Units=GPa)
#
#
# Indices 1 2 3 4 5 6 
#
# 1 108.9273 17.8111 44.4392 -12.5796 -4.3164 -2.7554
# 2 17.8111 99.7075 25.5047 -10.6106 12.9521 7.1603
# 3 44.4392 25.5047 177.4859 -14.9566 -2.3885 -0.8499
# 4 -12.5796 -10.6106 -14.9566 37.1530 13.6469 8.4349
# 5 -4.3164 12.9521 -2.3885 13.6469 48.7305 1.6393
# 6 -2.7554 7.1603 -0.8499 8.4349 1.6393 33.0695
#
#
#
# Elastic Compliance Matrix: (Units=1/GPa)
#
#
# Indices 1 2 3 4 5 6 
#
# 1 0.010580 -0.001205 -0.002299 0.001977 0.000573 0.000551
# 2 -0.001205 0.011939 -0.001061 0.005142 -0.004644 -0.003794
# 3 -0.002299 -0.001061 0.006495 0.001594 -0.000043 -0.000199
# 4 0.001977 0.005142 0.001594 0.035832 -0.010828 -0.009510
# 5 0.000573 -0.004644 -0.000043 -0.010828 0.024749 0.002587
# 6 0.000551 -0.003794 -0.000199 -0.009510 0.002587 0.033399
#
#
# Mechanical properties :
#
#
# Convention : Reuss Voigt Hill
#
# Bulk Modulus (GPa) = 50.29323 62.40340 56.34831
# Shear Modulus (GPa) = 36.03496 43.68163 39.85829
#
# Velocity S-wave (km/s) = 3.74121 4.11907 3.93468
# Velocity P-wave (km/s) = 6.18037 6.84550 6.52142
#
# Compressibility (1/GPa) = 0.01988339
#
# Stress axis : x y z
#
# Youngs Moduli (GPa) = 94.51424 83.75881 153.96030
#
# Poissons Ratio (x) = 0.10097 0.35395
# Poissons Ratio (y) = 0.11393 0.16338
# Poissons Ratio (z) = 0.21728 0.08888
#
# Static dielectric constant tensor:
#      x y z
#    x 2.029020 0.013640 -0.003540 
#    y 0.013640 2.109040 -0.002010 
#    z -0.003540 -0.002010 2.001750 
# 
# From -- ./inp_files/322147.got.cif
#   From: 2010.05.17/outbox.cif.g08.bks.cpg/sg2_162_cif.got.tgz:322147.got - 2010.06.03 11:33:40.
