data_PCOD9014212
_publ_section_title
;
Structure prediction by ZEFSAII (Michael W. Deem and Ramdas Pophale) SiO2 
 PCOD9014212
Probable space group: P -1
;
_chemical_formula_sum "Si O2"
_cell_formula_units_Z 16
_cell_length_a 9.618383
_cell_length_b 14.195797
_cell_length_c 10.952571
_cell_angle_alpha 148.824190
_cell_angle_beta 84.570654
_cell_angle_gamma 105.832297
_cell_volume 715.274687
_symmetry_space_group_name_H-M "P -1"
_symmetry_group_IT_number 2
_symmetry_cell_setting 'triclinic'
loop_
_space_group_symop_operation_xyz
x,y,z
-x,-y,-z
loop_
_atom_site_type_symbol
_atom_site_label
_atom_site_fract_x
_atom_site_fract_y
_atom_site_fract_z
Si Si1 0.277531 0.401973 0.162789
Si Si2 0.180523 0.141627 0.382055
Si Si3 0.794170 0.232224 0.731430
Si Si4 0.891182 0.965886 0.084948
Si Si5 0.325631 0.845755 0.615334
Si Si6 0.337950 0.871372 0.108763
Si Si7 0.135233 0.308215 0.811869
Si Si8 0.416998 0.511078 0.644801
O O1 0.275054 0.618971 0.403991
O O2 0.449730 0.425037 0.194448
O O3 0.179790 0.258261 0.115718
O O4 0.207711 0.304998 0.933004
O O5 0.208596 0.219095 0.603503
O O6 0.290140 0.306073 0.466628
O O7 0.210660 0.942589 0.146339
O O8 0.007063 0.098782 0.323377
O O9 0.719497 0.140752 0.507690
O O10 0.691478 0.159797 0.778612
O O11 0.953776 0.210299 0.718930
O O12 0.828225 0.464484 0.973209
O O13 0.757097 0.044376 0.174023
O O14 0.000000 0.000000 0.000000
O O15 0.503430 0.953564 0.732716
O O16 0.345194 0.676199 0.832761
O O17 0.500000 0.500000 0.500000
#
# Coordination Sequence:
#
# PCOD9014212 Si02
#       8
#     2   2   2   2   2   2   2   2
#     4  11  25  46  70 102 141 183 228 295 351 404
#     4  12  26  44  73 109 136 186 238 287 355 412
#     4  10  21  41  67 104 146 180 225 285 360 416
#     4  12  27  46  71 102 141 187 237 284 351 421
#     4  11  24  44  71 103 142 182 233 289 347 417
#     4  12  25  42  73 104 134 190 236 283 350 425
#     4  10  22  41  71 103 146 176 227 295 354 417
#     4  12  27  48  69  99 147 187 232 294 344 413
#
# _framework density 22.369029999999999
#
# number of rings (size 3 to 8) (size 9 to 14) (size 15 to 20)
#    0.000    0.750    5.000    1.875    1.750    5.500 
#    0.000    0.000    0.000    0.000    0.000    0.000 
#    0.000    0.000    0.000    0.000    0.000    0.000 
#
# Total GULP energy -89590.585148 kJ/mol
# GULP energy per Si atom -5599.411572 kJ/mol
# Density = 2.231812 g / cm^3
# Si number density = 22.369030 Si / 1000 Ang^3
#
#
#
# Elastic Constant Matrix: (Units=GPa)
#
#
# Indices 1 2 3 4 5 6 
#
# 1 71.7764 8.8506 1.1683 1.2316 -7.0204 7.9092
# 2 8.8506 102.1729 35.2172 17.6855 -20.8023 25.9291
# 3 1.1683 35.2172 54.4828 3.2946 -25.2309 3.1319
# 4 1.2316 17.6855 3.2946 35.1484 8.1035 2.8254
# 5 -7.0204 -20.8023 -25.2309 8.1035 41.6086 -2.6367
# 6 7.9092 25.9291 3.1319 2.8254 -2.6367 34.8496
#
#
#
# Elastic Compliance Matrix: (Units=1/GPa)
#
#
# Indices 1 2 3 4 5 6 
#
# 1 0.014606 -0.000185 0.001607 -0.001108 0.003373 -0.002976
# 2 -0.000185 0.018048 -0.008188 -0.008518 0.004952 -0.011585
# 3 0.001607 -0.008188 0.030783 -0.002784 0.015663 0.004372
# 4 -0.001108 -0.008518 -0.002784 0.035776 -0.012914 0.002961
# 5 0.003373 0.004952 0.015663 -0.012914 0.038973 -0.001862
# 6 -0.002976 -0.011585 0.004372 0.002961 -0.001862 0.037216
#
#
# Mechanical properties :
#
#
# Convention : Reuss Voigt Hill
#
# Bulk Modulus (GPa) = 20.03843 35.43382 27.73612
# Shear Modulus (GPa) = 24.32255 34.53439 29.42847
#
# Velocity S-wave (km/s) = 3.30105 3.93345 3.63104
# Velocity P-wave (km/s) = 4.84838 6.04188 5.47773
#
# Compressibility (1/GPa) = 0.04990410
#
# Stress axis : x y z
#
# Youngs Moduli (GPa) = 68.46622 55.40709 32.48495
#
# Poissons Ratio (x) = 0.01026 -0.05219
# Poissons Ratio (y) = 0.01268 0.26599
# Poissons Ratio (z) = -0.11000 0.45368
#
# Static dielectric constant tensor:
#      x y z
#    x 1.777610 -0.042940 0.024060 
#    y -0.042940 1.823820 -0.029410 
#    z 0.024060 -0.029410 1.831330 
# 
# From -- ./inp_files/273418.got.cif
#   From: 2010.05.17/outbox.cif.g08.bks.cpg/sg2_137_cif.got.tgz:273418.got - 2010.06.03 11:33:40.
