data_PCOD9014690
_publ_section_title
;
Structure prediction by ZEFSAII (Michael W. Deem and Ramdas Pophale) SiO2 
 PCOD9014690
Probable space group: P -1
;
_chemical_formula_sum "Si O2"
_cell_formula_units_Z 14
_cell_length_a 24.775909
_cell_length_b 9.145417
_cell_length_c 9.417854
_cell_angle_alpha 47.891641
_cell_angle_beta 151.070918
_cell_angle_gamma 142.971372
_cell_volume 618.719643
_symmetry_space_group_name_H-M "P -1"
_symmetry_group_IT_number 2
_symmetry_cell_setting 'triclinic'
loop_
_space_group_symop_operation_xyz
x,y,z
-x,-y,-z
loop_
_atom_site_type_symbol
_atom_site_label
_atom_site_fract_x
_atom_site_fract_y
_atom_site_fract_z
Si Si1 0.113692 0.219912 0.714883
Si Si2 0.140030 0.526558 0.337310
Si Si3 0.508685 0.225826 0.311374
Si Si4 0.562878 0.182496 0.156409
Si Si5 0.601401 0.623359 0.789820
Si Si6 0.186100 0.284792 0.354039
Si Si7 0.992923 0.263494 0.688192
O O1 0.139429 0.458557 0.543541
O O2 0.065520 0.216170 0.762192
O O3 0.244857 0.214844 0.022143
O O4 0.000000 0.000000 0.500000
O O5 0.292326 0.774412 0.494425
O O6 0.151357 0.338118 0.393412
O O7 0.000000 0.500000 0.000000
O O8 0.476436 0.150679 0.118680
O O9 0.425661 0.251472 0.227420
O O10 0.656696 0.493682 0.467270
O O11 0.500000 0.000000 0.500000
O O12 0.595486 0.419244 0.000364
O O13 0.500000 0.000000 0.000000
O O14 0.500000 0.500000 0.500000
O O15 0.148499 0.012715 0.435545
O O16 0.085885 0.312462 0.006597
O O17 0.000000 0.500000 0.500000
#
# Coordination Sequence:
#
# PCOD9014690 Si02
#       7
#     2   2   2   2   2   2   2
#     4  11  23  42  67 101 135 178 233 284 358 423
#     4  10  21  41  68  98 138 178 228 291 356 421
#     4  11  24  46  71  98 141 194 240 294 362 429
#     4  10  23  44  66 105 138 182 240 290 359 436
#     4  11  24  44  69  99 143 187 234 296 353 429
#     4  10  23  45  65 104 140 179 243 291 355 436
#     4  11  23  43  71 101 142 184 233 295 362 430
#
# _framework density 22.627372999999999
#
# number of rings (size 3 to 8) (size 9 to 14) (size 15 to 20)
#    0.000    1.429    1.429    3.000    0.000    5.714 
#   12.857    0.000    0.000    0.000    0.000    0.000 
#    0.000    0.000    0.000    0.000    0.000    0.000 
#
# Total GULP energy -78000.121801 kJ/mol
# GULP energy per Si atom -5571.437271 kJ/mol
# Density = 2.257587 g / cm^3
# Si number density = 22.627373 Si / 1000 Ang^3
#
#
#
# Elastic Constant Matrix: (Units=GPa)
#
#
# Indices 1 2 3 4 5 6 
#
# 1 138.3347 31.9540 51.6855 18.9724 -3.1204 -7.1387
# 2 31.9540 118.2641 34.9767 -13.1396 11.1562 -16.5291
# 3 51.6855 34.9767 115.2916 8.6592 2.8559 -10.2159
# 4 18.9724 -13.1396 8.6592 34.5924 -1.8902 -10.2834
# 5 -3.1204 11.1562 2.8559 -1.8902 47.0343 -4.5636
# 6 -7.1387 -16.5291 -10.2159 -10.2834 -4.5636 38.6458
#
#
#
# Elastic Compliance Matrix: (Units=1/GPa)
#
#
# Indices 1 2 3 4 5 6 
#
# 1 0.009858 -0.002689 -0.003327 -0.006037 0.001088 -0.001686
# 2 -0.002689 0.011815 -0.002428 0.008210 -0.001934 0.005871
# 3 -0.003327 -0.002428 0.011105 -0.001654 -0.000307 0.000806
# 4 -0.006037 0.008210 -0.001654 0.039510 0.000557 0.012538
# 5 0.001088 -0.001934 -0.000307 0.000557 0.022031 0.002042
# 6 -0.001686 0.005871 0.000806 0.012538 0.002042 0.031866
#
#
# Mechanical properties :
#
#
# Convention : Reuss Voigt Hill
#
# Bulk Modulus (GPa) = 62.92365 67.68031 65.30198
# Shear Modulus (GPa) = 33.69966 40.93943 37.31955
#
# Velocity S-wave (km/s) = 3.86337 4.25819 4.06558
# Velocity P-wave (km/s) = 6.91158 7.35880 7.13869
#
# Compressibility (1/GPa) = 0.01589228
#
# Stress axis : x y z
#
# Youngs Moduli (GPa) = 101.43601 84.63586 90.05104
#
# Poissons Ratio (x) = 0.22757 0.29958
# Poissons Ratio (y) = 0.27275 0.21860
# Poissons Ratio (z) = 0.33745 0.20546
#
# Static dielectric constant tensor:
#      x y z
#    x 1.713600 0.201900 0.212520 
#    y 0.201900 1.840970 0.028830 
#    z 0.212520 0.028830 1.843120 
# 
# From -- ./inp_files/352094.got.cif
#   From: 2010.05.17/outbox.cif.g08.bks.cpg/sg2_177_cif.got.tgz:352094.got - 2010.06.03 11:33:40.
