data_PCOD9014755
_publ_section_title
;
Structure prediction by ZEFSAII (Michael W. Deem and Ramdas Pophale) SiO2 
 PCOD9014755
Probable space group: P -1
;
_chemical_formula_sum "Si O2"
_cell_formula_units_Z 14
_cell_length_a 10.943015
_cell_length_b 10.807214
_cell_length_c 7.894937
_cell_angle_alpha 46.735724
_cell_angle_beta 58.598490
_cell_angle_gamma 64.488593
_cell_volume 576.244429
_symmetry_space_group_name_H-M "P -1"
_symmetry_group_IT_number 2
_symmetry_cell_setting 'triclinic'
loop_
_space_group_symop_operation_xyz
x,y,z
-x,-y,-z
loop_
_atom_site_type_symbol
_atom_site_label
_atom_site_fract_x
_atom_site_fract_y
_atom_site_fract_z
Si Si1 0.558024 0.458184 0.280869
Si Si2 0.756137 0.983719 0.131232
Si Si3 0.655895 0.346310 0.959372
Si Si4 0.471224 0.886170 0.289871
Si Si5 0.146675 0.386315 0.542731
Si Si6 0.163082 0.028662 0.310889
Si Si7 0.842216 0.584203 0.088400
O O1 0.454791 0.627578 0.143230
O O2 0.493827 0.318123 0.575442
O O3 0.714761 0.486423 0.203255
O O4 0.575545 0.356175 0.185448
O O5 0.589508 0.941681 0.283088
O O6 0.842139 0.816021 0.311803
O O7 0.811769 0.998434 0.884037
O O8 0.757046 0.168841 0.038404
O O9 0.737765 0.514219 0.730157
O O10 0.298572 0.922373 0.407393
O O11 0.500000 0.000000 0.000000
O O12 0.166797 0.402394 0.714893
O O13 0.000000 0.500000 0.500000
O O14 0.178609 0.225806 0.148782
O O15 0.000000 0.000000 0.500000
O O16 0.000000 0.500000 0.000000
#
# Coordination Sequence:
#
# PCOD9014755 Si02
#       7
#     2   2   2   2   2   2   2
#     4  11  24  45  70 108 141 186 239 296 361 432
#     4  10  23  45  69 102 138 191 240 290 363 422
#     4  11  25  45  72 102 147 186 237 295 362 432
#     4  10  21  41  69 103 140 177 240 297 349 431
#     4  11  25  46  69 100 143 184 241 299 365 430
#     4  10  22  40  65 104 141 178 238 295 356 428
#     4  11  24  42  69 100 138 185 234 296 357 426
#
# _framework density 24.295245000000001
#
# number of rings (size 3 to 8) (size 9 to 14) (size 15 to 20)
#    0.000    1.429    1.429    2.571    6.000    4.000 
#    5.143    0.000    0.000    0.000    0.000    0.000 
#    0.000    0.000    0.000    0.000    0.000    0.000 
#
# Total GULP energy -78350.778904 kJ/mol
# GULP energy per Si atom -5596.484207 kJ/mol
# Density = 2.423995 g / cm^3
# Si number density = 24.295245 Si / 1000 Ang^3
#
#
#
# Elastic Constant Matrix: (Units=GPa)
#
#
# Indices 1 2 3 4 5 6 
#
# 1 87.7094 14.0426 37.9444 -2.4114 5.2326 -39.5563
# 2 14.0426 112.4259 36.7112 -19.6810 7.2851 -29.4472
# 3 37.9444 36.7112 112.3488 -15.4536 -9.5000 -10.5106
# 4 -2.4114 -19.6810 -15.4536 48.2502 -13.7960 3.0364
# 5 5.2326 7.2851 -9.5000 -13.7960 35.7924 0.2458
# 6 -39.5563 -29.4472 -10.5106 3.0364 0.2458 45.0608
#
#
#
# Elastic Compliance Matrix: (Units=1/GPa)
#
#
# Indices 1 2 3 4 5 6 
#
# 1 0.026871 0.006748 -0.010143 -0.003507 -0.009524 0.025920
# 2 0.006748 0.014196 -0.005742 0.002082 -0.004692 0.013747
# 3 -0.010143 -0.005742 0.014697 0.004894 0.008505 -0.009605
# 4 -0.003507 0.002082 0.004894 0.026434 0.011593 -0.002421
# 5 -0.009524 -0.004692 0.008505 0.011593 0.037084 -0.010426
# 6 0.025920 0.013747 -0.009605 -0.002421 -0.010426 0.051909
#
#
# Mechanical properties :
#
#
# Convention : Reuss Voigt Hill
#
# Bulk Modulus (GPa) = 26.67441 54.43119 40.55280
# Shear Modulus (GPa) = 24.75730 40.73975 32.74852
#
# Velocity S-wave (km/s) = 3.19567 4.09939 3.67541
# Velocity P-wave (km/s) = 4.96181 6.69771 5.89402
#
# Compressibility (1/GPa) = 0.03748911
#
# Stress axis : x y z
#
# Youngs Moduli (GPa) = 37.21549 70.44230 68.04284
#
# Poissons Ratio (x) = -0.47535 0.69016
# Poissons Ratio (y) = -0.25114 0.39071
# Poissons Ratio (z) = 0.37748 0.40449
#
# Static dielectric constant tensor:
#      x y z
#    x 1.979410 -0.023250 0.032670 
#    y -0.023250 1.996370 -0.005640 
#    z 0.032670 -0.005640 1.982680 
# 
# From -- ./inp_files/261251.got.cif
#   From: 2010.05.17/outbox.cif.g08.bks.cpg/sg2_131_cif.got.tgz:261251.got - 2010.06.03 11:33:40.
