data_PCOD9014746
_publ_section_title
;
Structure prediction by ZEFSAII (Michael W. Deem and Ramdas Pophale) SiO2 
 PCOD9014746
Probable space group: P -1
;
_chemical_formula_sum "Si O2"
_cell_formula_units_Z 14
_cell_length_a 14.652530
_cell_length_b 9.437045
_cell_length_c 5.157141
_cell_angle_alpha 88.484817
_cell_angle_beta 109.295884
_cell_angle_gamma 78.456099
_cell_volume 656.125392
_symmetry_space_group_name_H-M "P -1"
_symmetry_group_IT_number 2
_symmetry_cell_setting 'triclinic'
loop_
_space_group_symop_operation_xyz
x,y,z
-x,-y,-z
loop_
_atom_site_type_symbol
_atom_site_label
_atom_site_fract_x
_atom_site_fract_y
_atom_site_fract_z
Si Si1 0.812202 0.747615 0.200244
Si Si2 0.717294 0.976802 0.462567
Si Si3 0.345108 0.284211 0.297191
Si Si4 0.473197 0.847934 0.901037
Si Si5 0.932070 0.887073 0.897919
Si Si6 0.036292 0.401909 0.289843
Si Si7 0.525815 0.584501 0.272765
O O1 0.738270 0.896381 0.209060
O O2 0.850308 0.663281 0.505338
O O3 0.753067 0.658468 0.968534
O O4 0.898053 0.800512 0.115889
O O5 0.670167 0.866247 0.591637
O O6 0.826847 0.972979 0.674192
O O7 0.632991 0.119962 0.341042
O O8 0.439239 0.241485 0.194319
O O9 0.366958 0.387697 0.542811
O O10 0.468493 0.749706 0.153259
O O11 0.500000 0.000000 0.000000
O O12 0.990407 0.754153 0.779465
O O13 0.000000 0.000000 0.000000
O O14 0.000000 0.500000 0.500000
O O15 0.000000 0.500000 0.000000
O O16 0.500000 0.500000 0.500000
O O17 0.500000 0.500000 0.000000
#
# Coordination Sequence:
#
# PCOD9014746 Si02
#       7
#     2   2   2   2   2   2   2
#     4  10  21  41  69 102 138 178 237 288 350 419
#     4  10  22  37  68 106 130 179 237 294 341 422
#     4  11  21  40  70  98 139 182 236 280 352 412
#     4  12  22  40  71 102 135 184 242 286 338 422
#     4  10  23  43  71 101 142 178 229 303 365 403
#     4  11  22  43  69 100 132 179 233 281 347 430
#     4  12  26  43  62  96 142 187 226 288 358 400
#
# _framework density 21.337387
#
# number of rings (size 3 to 8) (size 9 to 14) (size 15 to 20)
#    0.000    1.143    5.714    0.429    0.000    2.286 
#    0.000    2.857    0.000    0.000    0.000    0.000 
#    0.000    0.000    0.000    0.000    0.000    0.000 
#
# Total GULP energy -77973.929594 kJ/mol
# GULP energy per Si atom -5569.566400 kJ/mol
# Density = 2.128882 g / cm^3
# Si number density = 21.337387 Si / 1000 Ang^3
#
#
#
# Elastic Constant Matrix: (Units=GPa)
#
#
# Indices 1 2 3 4 5 6 
#
# 1 87.9587 43.1344 45.9379 4.5725 5.1462 5.4784
# 2 43.1344 119.9540 73.1570 5.5507 14.3149 14.7887
# 3 45.9379 73.1570 187.0542 7.7162 13.1336 22.6575
# 4 4.5725 5.5507 7.7162 44.8132 2.2573 0.0493
# 5 5.1462 14.3149 13.1336 2.2573 45.0116 11.5502
# 6 5.4784 14.7887 22.6575 0.0493 11.5502 22.7419
#
#
#
# Elastic Compliance Matrix: (Units=1/GPa)
#
#
# Indices 1 2 3 4 5 6 
#
# 1 0.014386 -0.004023 -0.002083 -0.000610 -0.000048 0.001251
# 2 -0.004023 0.012430 -0.003386 -0.000455 -0.001751 -0.002850
# 3 -0.002083 -0.003386 0.007825 -0.000731 0.000431 -0.005309
# 4 -0.000610 -0.000455 -0.000731 0.022615 -0.001143 0.001703
# 5 -0.000048 -0.001751 0.000431 -0.001143 0.025900 -0.012431
# 6 0.001251 -0.002850 -0.005309 0.001703 -0.012431 0.057123
#
#
# Mechanical properties :
#
#
# Convention : Reuss Voigt Hill
#
# Bulk Modulus (GPa) = 63.87149 79.93616 71.90382
# Shear Modulus (GPa) = 30.39833 38.02917 34.21375
#
# Velocity S-wave (km/s) = 3.77855 4.22628 4.00867
# Velocity P-wave (km/s) = 7.00255 7.83324 7.42951
#
# Compressibility (1/GPa) = 0.01565644
#
# Stress axis : x y z
#
# Youngs Moduli (GPa) = 69.51088 80.45123 127.79668
#
# Poissons Ratio (x) = 0.32369 0.26614
# Poissons Ratio (y) = 0.27967 0.43277
# Poissons Ratio (z) = 0.14476 0.27244
#
# Static dielectric constant tensor:
#      x y z
#    x 1.858690 -0.029040 -0.013970 
#    y -0.029040 1.740300 0.009070 
#    z -0.013970 0.009070 1.915310 
# 
# From -- ./inp_files/89004.got.cif
#   From: 2010.05.17/outbox.cif.g08.bks.cpg/sg2_45_cif.got.tgz:89004.got - 2010.06.03 11:33:40.
