data_PCOD9014656
_publ_section_title
;
Structure prediction by ZEFSAII (Michael W. Deem and Ramdas Pophale) SiO2 
 PCOD9014656
Probable space group: P -1
;
_chemical_formula_sum "Si O2"
_cell_formula_units_Z 12
_cell_length_a 12.451171
_cell_length_b 5.607174
_cell_length_c 11.921819
_cell_angle_alpha 49.438627
_cell_angle_beta 133.541255
_cell_angle_gamma 124.734985
_cell_volume 447.005713
_symmetry_space_group_name_H-M "P -1"
_symmetry_group_IT_number 2
_symmetry_cell_setting 'triclinic'
loop_
_space_group_symop_operation_xyz
x,y,z
-x,-y,-z
loop_
_atom_site_type_symbol
_atom_site_label
_atom_site_fract_x
_atom_site_fract_y
_atom_site_fract_z
Si Si1 0.585914 0.924177 0.195640
Si Si2 0.371747 0.079261 0.147520
Si Si3 0.148074 0.982961 0.802081
Si Si4 0.128377 0.312731 0.022790
Si Si5 0.673204 0.437050 0.527294
Si Si6 0.839717 0.995685 0.633471
O O1 0.537196 0.155399 0.184915
O O2 0.541805 0.563496 0.326908
O O3 0.752847 0.938125 0.261418
O O4 0.500000 0.000000 0.000000
O O5 0.372099 0.814681 0.326066
O O6 0.284482 0.328903 0.063924
O O7 0.258163 0.978081 0.989949
O O8 0.013757 0.159624 0.676666
O O9 0.063830 0.610873 0.846624
O O10 0.156246 0.267926 0.186200
O O11 0.000000 0.000000 0.000000
O O12 0.756618 0.777929 0.539086
O O13 0.758102 0.251783 0.555980
#
# Coordination Sequence:
#
# PCOD9014656 Si02
#       6
#     2   2   2   2   2   2
#     4  10  25  47  65  95 137 186 224 280 345 408
#     4  10  21  41  68  96 137 177 229 273 331 412
#     4  11  21  40  66 102 138 174 222 277 345 406
#     4  11  20  37  68 105 130 175 228 279 331 401
#     4  11  24  46  69 102 134 180 234 284 334 401
#     4  11  23  40  73 101 136 174 230 286 336 396
#
# _framework density 26.845296999999999
#
# number of rings (size 3 to 8) (size 9 to 14) (size 15 to 20)
#    0.000    1.333    3.333    3.000    0.000    2.000 
#   12.000    2.500    0.000    0.000    0.000    0.000 
#    0.000    0.000    0.000    0.000    0.000    0.000 
#
# Total GULP energy -67073.118230 kJ/mol
# GULP energy per Si atom -5589.426519 kJ/mol
# Density = 2.678420 g / cm^3
# Si number density = 26.845297 Si / 1000 Ang^3
#
#
#
# Elastic Constant Matrix: (Units=GPa)
#
#
# Indices 1 2 3 4 5 6 
#
# 1 262.4789 36.1846 46.4255 3.4269 8.5509 -39.8845
# 2 36.1846 78.7129 29.5561 10.4690 -5.9088 -11.4911
# 3 46.4255 29.5561 118.0971 -4.9743 -17.8530 -14.0959
# 4 3.4269 10.4690 -4.9743 38.5531 -8.1838 4.9087
# 5 8.5509 -5.9088 -17.8530 -8.1838 36.1139 2.1130
# 6 -39.8845 -11.4911 -14.0959 4.9087 2.1130 26.7371
#
#
#
# Elastic Compliance Matrix: (Units=1/GPa)
#
#
# Indices 1 2 3 4 5 6 
#
# 1 0.005496 -0.000750 -0.001627 -0.002141 -0.003162 0.007662
# 2 -0.000750 0.015693 -0.003335 -0.005330 -0.000397 0.004878
# 3 -0.001627 -0.003335 0.011123 0.003677 0.006122 0.000845
# 4 -0.002141 -0.005330 0.003677 0.031261 0.009122 -0.010007
# 5 -0.003162 -0.000397 0.006122 0.009122 0.033819 -0.006007
# 6 0.007662 0.004878 0.000845 -0.010007 -0.006007 0.053685
#
#
# Mechanical properties :
#
#
# Convention : Reuss Voigt Hill
#
# Bulk Modulus (GPa) = 47.87206 75.95791 61.91499
# Shear Modulus (GPa) = 29.50521 43.42234 36.46377
#
# Velocity S-wave (km/s) = 3.31884 4.02618 3.68950
# Velocity P-wave (km/s) = 5.70592 7.06892 6.42367
#
# Compressibility (1/GPa) = 0.02088901
#
# Stress axis : x y z
#
# Youngs Moduli (GPa) = 181.94711 63.72459 89.90439
#
# Poissons Ratio (x) = 0.04778 0.14624
# Poissons Ratio (y) = 0.13642 0.29982
# Poissons Ratio (z) = 0.29595 0.21252
#
# Static dielectric constant tensor:
#      x y z
#    x 2.101700 0.023440 0.043940 
#    y 0.023440 2.196710 0.094010 
#    z 0.043940 0.094010 2.143990 
# 
# From -- ./inp_files/25638.got.cif
#   From: 2010.05.17/outbox.cif.g08.bks.cpg/sg2_13_cif.got.tgz:25638.got - 2010.06.03 11:33:40.
