data_PCOD9014507
_publ_section_title
;
Structure prediction by ZEFSAII (Michael W. Deem and Ramdas Pophale) SiO2 
 PCOD9014507
Probable space group: P -1
;
_chemical_formula_sum "Si O2"
_cell_formula_units_Z 16
_cell_length_a 15.562676
_cell_length_b 11.823787
_cell_length_c 5.164982
_cell_angle_alpha 83.988818
_cell_angle_beta 54.436535
_cell_angle_gamma 115.235212
_cell_volume 613.785018
_symmetry_space_group_name_H-M "P -1"
_symmetry_group_IT_number 2
_symmetry_cell_setting 'triclinic'
loop_
_space_group_symop_operation_xyz
x,y,z
-x,-y,-z
loop_
_atom_site_type_symbol
_atom_site_label
_atom_site_fract_x
_atom_site_fract_y
_atom_site_fract_z
Si Si1 0.226801 0.654533 0.567452
Si Si2 0.982062 0.592015 0.314843
Si Si3 0.388560 0.610787 0.690350
Si Si4 0.401287 0.134051 0.464287
Si Si5 0.807081 0.842476 0.968871
Si Si6 0.028559 0.836874 0.529472
Si Si7 0.607962 0.625571 0.990071
Si Si8 0.303937 0.940784 0.190375
O O1 0.161717 0.517847 0.529747
O O2 0.291594 0.627090 0.694087
O O3 0.310274 0.810173 0.254808
O O4 0.099668 0.643037 0.897655
O O5 0.000000 0.500000 0.500000
O O6 0.999260 0.718828 0.407665
O O7 0.452841 0.726978 0.775554
O O8 0.509049 0.654351 0.278897
O O9 0.353902 0.464966 0.896846
O O10 0.377183 0.052382 0.264847
O O11 0.313191 0.193920 0.628846
O O12 0.357837 0.022139 0.802125
O O13 0.893629 0.790144 0.912563
O O14 0.907979 0.013308 0.760227
O O15 0.747510 0.781886 0.798753
O O16 0.149835 0.877086 0.484038
O O17 0.500000 0.500000 0.000000
#
# Coordination Sequence:
#
# PCOD9014507 Si02
#       8
#     2   2   2   2   2   2   2   2
#     4  11  25  42  68  99 137 188 239 288 361 426
#     4  11  24  43  65 100 142 184 231 301 348 425
#     4  10  25  43  64 102 131 184 240 289 361 424
#     4  10  24  45  69 104 145 185 237 299 351 420
#     4   9  21  40  67 103 134 183 238 286 357 419
#     4  10  21  41  68 102 138 185 234 290 354 423
#     4  10  23  43  67  95 136 181 229 301 349 422
#     4  11  23  44  70 100 149 187 234 297 351 421
#
# _framework density 26.067758000000001
#
# number of rings (size 3 to 8) (size 9 to 14) (size 15 to 20)
#    0.000    1.750    1.250    1.500    8.750    1.500 
#    0.000    1.250    0.000    0.000    0.000    0.000 
#    0.000    0.000    0.000    0.000    0.000    0.000 
#
# Total GULP energy -89394.212438 kJ/mol
# GULP energy per Si atom -5587.138277 kJ/mol
# Density = 2.600843 g / cm^3
# Si number density = 26.067758 Si / 1000 Ang^3
#
#
#
# Elastic Constant Matrix: (Units=GPa)
#
#
# Indices 1 2 3 4 5 6 
#
# 1 126.9094 71.8151 5.7878 -2.5012 -14.0620 -0.6836
# 2 71.8151 216.8845 25.3245 -5.8272 -11.1999 10.3403
# 3 5.7878 25.3245 21.7494 4.5155 -13.7883 -10.0298
# 4 -2.5012 -5.8272 4.5155 27.3604 -2.2891 2.3754
# 5 -14.0620 -11.1999 -13.7883 -2.2891 40.9991 -1.3122
# 6 -0.6836 10.3403 -10.0298 2.3754 -1.3122 41.3175
#
#
#
# Elastic Compliance Matrix: (Units=1/GPa)
#
#
# Indices 1 2 3 4 5 6 
#
# 1 0.010455 -0.004162 0.006646 -0.000895 0.004731 0.003030
# 2 -0.004162 0.007776 -0.013853 0.003729 -0.003937 -0.005717
# 3 0.006646 -0.013853 0.097404 -0.018352 0.031165 0.029266
# 4 -0.000895 0.003729 -0.018352 0.040684 -0.003440 -0.007851
# 5 0.004731 -0.003937 0.031165 -0.003440 0.035546 0.009956
# 6 0.003030 -0.005717 0.029266 -0.007851 0.009956 0.033556
#
#
# Mechanical properties :
#
#
# Convention : Reuss Voigt Hill
#
# Bulk Modulus (GPa) = 10.76467 63.48870 37.12668
# Shear Modulus (GPa) = 17.91324 39.44313 28.67818
#
# Velocity S-wave (km/s) = 2.62426 3.89408 3.32043
# Velocity P-wave (km/s) = 3.64976 6.68031 5.38272
#
# Compressibility (1/GPa) = 0.09289649
#
# Stress axis : x y z
#
# Youngs Moduli (GPa) = 95.65201 128.60309 10.26653
#
# Poissons Ratio (x) = 0.53524 -0.06823
# Poissons Ratio (y) = 0.39810 0.14222
# Poissons Ratio (z) = -0.63571 1.78155
#
# Static dielectric constant tensor:
#      x y z
#    x 2.109610 -0.033070 0.127280 
#    y -0.033070 2.065210 -0.117190 
#    z 0.127280 -0.117190 2.457780 
# 
# From -- ./inp_files/94900.got.cif
#   From: 2010.05.17/outbox.cif.g08.bks.cpg/sg2_48_cif.got.tgz:94900.got - 2010.06.03 11:33:40.
