data_PCOD9014392
_publ_section_title
;
Structure prediction by ZEFSAII (Michael W. Deem and Ramdas Pophale) SiO2 
 PCOD9014392
Probable space group: P -1
;
_chemical_formula_sum "Si O2"
_cell_formula_units_Z 12
_cell_length_a 7.598378
_cell_length_b 12.998121
_cell_length_c 8.183270
_cell_angle_alpha 125.480866
_cell_angle_beta 85.694229
_cell_angle_gamma 128.151007
_cell_volume 464.077917
_symmetry_space_group_name_H-M "P -1"
_symmetry_group_IT_number 2
_symmetry_cell_setting 'triclinic'
loop_
_space_group_symop_operation_xyz
x,y,z
-x,-y,-z
loop_
_atom_site_type_symbol
_atom_site_label
_atom_site_fract_x
_atom_site_fract_y
_atom_site_fract_z
Si Si1 0.672235 0.735422 0.069560
Si Si2 0.246071 0.898558 0.023295
Si Si3 0.983435 0.135306 0.310822
Si Si4 0.491062 0.607904 0.333883
Si Si5 0.381751 0.825688 0.502881
Si Si6 0.776713 0.334428 0.970692
O O1 0.633966 0.696020 0.229828
O O2 0.405637 0.649233 0.941929
O O3 0.865195 0.946233 0.217323
O O4 0.686244 0.603049 0.870820
O O5 0.081123 0.890763 0.900595
O O6 0.158758 0.721363 0.936264
O O7 0.500000 0.000000 0.000000
O O8 0.347659 0.017355 0.288430
O O9 0.828938 0.178870 0.434352
O O10 0.278825 0.292177 0.465887
O O11 0.337128 0.659281 0.415224
O O12 0.383451 0.819298 0.300499
O O13 0.000000 0.500000 0.000000
#
# Coordination Sequence:
#
# PCOD9014392 Si02
#       6
#     2   2   2   2   2   2
#     4  10  21  42  64  98 137 170 220 286 326 393
#     4  10  21  41  67  96 133 175 220 276 341 393
#     4  11  22  44  71  92 137 182 214 278 349 388
#     4  10  23  40  64 101 134 171 229 272 332 401
#     4  10  22  42  69  94 129 178 228 270 322 411
#     4  11  21  39  69 101 127 175 233 272 327 408
#
# _framework density 25.857724999999999
#
# number of rings (size 3 to 8) (size 9 to 14) (size 15 to 20)
#    0.000    1.667    3.333    2.000    2.333    0.667 
#   12.000    3.333    0.000    0.000    0.000    0.000 
#    0.000    0.000    0.000    0.000    0.000    0.000 
#
# Total GULP energy -67105.679689 kJ/mol
# GULP energy per Si atom -5592.139974 kJ/mol
# Density = 2.579887 g / cm^3
# Si number density = 25.857725 Si / 1000 Ang^3
#
#
#
# Elastic Constant Matrix: (Units=GPa)
#
#
# Indices 1 2 3 4 5 6 
#
# 1 154.9186 31.9279 24.8809 3.1239 -13.7977 -19.8788
# 2 31.9279 124.7613 32.4510 -4.1485 4.3778 -16.5766
# 3 24.8809 32.4510 69.1782 -9.5670 9.3641 -29.6639
# 4 3.1239 -4.1485 -9.5670 26.4208 -20.5349 3.1329
# 5 -13.7977 4.3778 9.3641 -20.5349 50.2478 -0.8709
# 6 -19.8788 -16.5766 -29.6639 3.1329 -0.8709 39.5890
#
#
#
# Elastic Compliance Matrix: (Units=1/GPa)
#
#
# Indices 1 2 3 4 5 6 
#
# 1 0.007461 -0.001328 -0.001475 0.000069 0.002504 0.002135
# 2 -0.001328 0.009388 -0.003647 -0.000200 -0.000575 0.000535
# 3 -0.001475 -0.003647 0.024340 0.004672 -0.002444 0.015547
# 4 0.000069 -0.000200 0.004672 0.057025 0.022461 -0.000567
# 5 0.002504 -0.000575 -0.002444 0.022461 0.030240 -0.001927
# 6 0.002135 0.000535 0.015547 -0.000567 -0.001927 0.038208
#
#
# Mechanical properties :
#
#
# Convention : Reuss Voigt Hill
#
# Bulk Modulus (GPa) = 35.34662 58.59753 46.97208
# Shear Modulus (GPa) = 26.45625 40.55806 33.50716
#
# Velocity S-wave (km/s) = 3.20214 3.96474 3.60367
# Velocity P-wave (km/s) = 5.23172 6.60829 5.95989
#
# Compressibility (1/GPa) = 0.02829125
#
# Stress axis : x y z
#
# Youngs Moduli (GPa) = 134.02813 106.51596 41.08455
#
# Poissons Ratio (x) = 0.14143 0.06058
# Poissons Ratio (y) = 0.17795 0.14983
# Poissons Ratio (z) = 0.19763 0.38844
#
# Static dielectric constant tensor:
#      x y z
#    x 2.180410 -0.015570 0.091470 
#    y -0.015570 2.100260 0.083480 
#    z 0.091470 0.083480 2.344370 
# 
# From -- ./inp_files/166313.got.cif
#   From: 2010.05.17/outbox.cif.g08.bks.cpg/sg2_84_cif.got.tgz:166313.got - 2010.06.03 11:33:40.
