data_PCOD9014937
_publ_section_title
;
Structure prediction by ZEFSAII (Michael W. Deem and Ramdas Pophale) SiO2 
 PCOD9014937
Probable space group: P -1
;
_chemical_formula_sum "Si O2"
_cell_formula_units_Z 10
_cell_length_a 13.659584
_cell_length_b 8.897834
_cell_length_c 13.678782
_cell_angle_alpha 147.250212
_cell_angle_beta 32.684746
_cell_angle_gamma 149.511271
_cell_volume 412.856750
_symmetry_space_group_name_H-M "P -1"
_symmetry_group_IT_number 2
_symmetry_cell_setting 'triclinic'
loop_
_space_group_symop_operation_xyz
x,y,z
-x,-y,-z
loop_
_atom_site_type_symbol
_atom_site_label
_atom_site_fract_x
_atom_site_fract_y
_atom_site_fract_z
Si Si1 0.707477 0.805421 0.942740
Si Si2 0.461691 0.325746 0.539051
Si Si3 0.104512 0.631941 0.762059
Si Si4 0.278572 0.731382 0.478848
Si Si5 0.291105 0.744515 0.980768
O O1 0.762166 0.613511 0.711729
O O2 0.705905 0.085109 0.030263
O O3 0.500000 0.500000 0.000000
O O4 0.835526 0.030078 0.050733
O O5 0.500000 0.500000 0.500000
O O6 0.700057 0.431092 0.428677
O O7 0.317536 0.936702 0.459521
O O8 0.324513 0.442827 0.776181
O O9 0.092026 0.663257 0.673168
O O10 0.908161 0.357178 0.838006
O O11 0.500000 0.000000 0.500000
O O12 0.500000 0.000000 0.000000
#
# Coordination Sequence:
#
# PCOD9014937 Si02
#       5
#     2   2   2   2   2
#     4  12  22  44  74 100 139 187 224 287 353 407
#     4  11  22  43  71 103 139 175 231 286 341 417
#     4  11  25  47  72  98 147 183 225 289 350 405
#     4  10  21  41  70 102 140 181 225 283 349 412
#     4  12  27  45  70 103 138 185 238 283 342 413
#
# _framework density 24.221475999999999
#
# number of rings (size 3 to 8) (size 9 to 14) (size 15 to 20)
#    0.000    0.800    6.000    3.000    0.000    4.000 
#    0.000    1.000    0.000    0.000    0.000    0.000 
#    0.000    0.000    0.000    0.000    0.000    0.000 
#
# Total GULP energy -55751.509701 kJ/mol
# GULP energy per Si atom -5575.150970 kJ/mol
# Density = 2.416635 g / cm^3
# Si number density = 24.221476 Si / 1000 Ang^3
#
#
#
# Elastic Constant Matrix: (Units=GPa)
#
#
# Indices 1 2 3 4 5 6 
#
# 1 36.6814 35.3050 34.3657 -13.5084 15.8885 -9.2711
# 2 35.3050 146.9104 43.3899 -28.3883 -0.1562 -27.5582
# 3 34.3657 43.3899 150.8368 -0.0426 7.2414 -7.3552
# 4 -13.5084 -28.3883 -0.0426 62.0426 -3.8546 15.7270
# 5 15.8885 -0.1562 7.2414 -3.8546 44.9955 7.3700
# 6 -9.2711 -27.5582 -7.3552 15.7270 7.3700 23.1285
#
#
#
# Elastic Compliance Matrix: (Units=1/GPa)
#
#
# Indices 1 2 3 4 5 6 
#
# 1 0.057474 -0.007516 -0.009182 0.003913 -0.020996 0.015193
# 2 -0.007516 0.010670 -0.001051 0.001342 0.001678 0.007920
# 3 -0.009182 -0.001051 0.008870 -0.002022 0.001856 -0.001329
# 4 0.003913 0.001342 -0.002022 0.020956 0.002811 -0.012622
# 5 -0.020996 0.001678 0.001856 0.002811 0.032553 -0.018112
# 6 0.015193 0.007920 -0.001329 -0.012622 -0.018112 0.072695
#
#
# Mechanical properties :
#
#
# Convention : Reuss Voigt Hill
#
# Bulk Modulus (GPa) = 24.08791 62.28330 43.18560
# Shear Modulus (GPa) = 19.79762 40.79119 30.29440
#
# Velocity S-wave (km/s) = 2.86205 4.10822 3.54040
# Velocity P-wave (km/s) = 4.57036 6.94789 5.88054
#
# Compressibility (1/GPa) = 0.04151460
#
# Stress axis : x y z
#
# Youngs Moduli (GPa) = 17.39913 93.71876 112.74459
#
# Poissons Ratio (x) = 0.70442 1.03527
# Poissons Ratio (y) = 0.13078 0.11849
# Poissons Ratio (z) = 0.15977 0.09849
#
# Static dielectric constant tensor:
#      x y z
#    x 2.262600 -0.132540 0.128810 
#    y -0.132540 1.929590 -0.193770 
#    z 0.128810 -0.193770 1.839470 
# 
# From -- ./inp_files/143976.got.cif
#   From: 2010.05.17/outbox.cif.g08.bks.cpg/sg2_72_cif.got.tgz:143976.got - 2010.06.03 11:33:40.
