data_PCOD9014649
_publ_section_title
;
Structure prediction by ZEFSAII (Michael W. Deem and Ramdas Pophale) SiO2 
 PCOD9014649
Probable space group: P -1
;
_chemical_formula_sum "Si O2"
_cell_formula_units_Z 16
_cell_length_a 5.829479
_cell_length_b 8.300336
_cell_length_c 14.749216
_cell_angle_alpha 68.568608
_cell_angle_beta 80.837191
_cell_angle_gamma 101.931240
_cell_volume 627.999457
_symmetry_space_group_name_H-M "P -1"
_symmetry_group_IT_number 2
_symmetry_cell_setting 'triclinic'
loop_
_space_group_symop_operation_xyz
x,y,z
-x,-y,-z
loop_
_atom_site_type_symbol
_atom_site_label
_atom_site_fract_x
_atom_site_fract_y
_atom_site_fract_z
Si Si1 0.814282 0.045654 0.856810
Si Si2 0.186298 0.397097 0.837820
Si Si3 0.894271 0.694392 0.946305
Si Si4 0.154213 0.130255 0.648297
Si Si5 0.248413 0.546173 0.613471
Si Si6 0.335451 0.363985 0.215796
Si Si7 0.401783 0.931248 0.796742
Si Si8 0.837434 0.726811 0.561806
O O1 0.002489 0.201789 0.867392
O O2 0.940199 0.043260 0.750298
O O3 0.757544 0.848172 0.945129
O O4 0.561045 0.065021 0.834227
O O5 0.154341 0.518681 0.729680
O O6 0.478790 0.444686 0.806432
O O7 0.136984 0.430621 0.938860
O O8 0.788762 0.608575 0.875409
O O9 0.159524 0.824109 0.885233
O O10 0.216499 0.344357 0.620116
O O11 0.102285 0.113563 0.548778
O O12 0.358959 0.044904 0.689681
O O13 0.541415 0.640255 0.576117
O O14 0.059674 0.633289 0.555963
O O15 0.490759 0.226775 0.210751
O O16 0.175382 0.269462 0.329570
#
# Coordination Sequence:
#
# PCOD9014649 Si02
#       8
#     2   2   2   2   2   2   2   2
#     4   9  21  41  63  99 135 167 236 283 337 411
#     4  10  21  41  68  96 131 180 225 288 345 399
#     4  10  21  42  65  94 135 180 230 275 349 404
#     4  10  22  40  70  92 135 182 223 279 354 402
#     4  10  24  41  65 105 138 168 235 292 342 412
#     4  10  24  43  64  97 143 175 233 279 335 420
#     4  10  23  42  63  98 138 183 222 285 332 422
#     4  11  24  42  68 101 138 180 228 290 344 412
#
# _framework density 25.477730000000001
#
# number of rings (size 3 to 8) (size 9 to 14) (size 15 to 20)
#    0.000    2.000    0.000    1.500    8.750    1.500 
#    9.000    5.625    0.000    0.000    0.000    0.000 
#    0.000    0.000    0.000    0.000    0.000    0.000 
#
# Total GULP energy -89246.256866 kJ/mol
# GULP energy per Si atom -5577.891054 kJ/mol
# Density = 2.541974 g / cm^3
# Si number density = 25.477730 Si / 1000 Ang^3
#
#
#
# Elastic Constant Matrix: (Units=GPa)
#
#
# Indices 1 2 3 4 5 6 
#
# 1 110.8287 53.0197 59.2635 -15.2157 38.1167 0.8526
# 2 53.0197 74.3708 38.3881 -5.2259 18.3121 17.1407
# 3 59.2635 38.3881 195.8833 6.6333 26.4459 -0.9771
# 4 -15.2157 -5.2259 6.6333 39.3415 -4.3301 8.5062
# 5 38.1167 18.3121 26.4459 -4.3301 39.5590 3.7184
# 6 0.8526 17.1407 -0.9771 8.5062 3.7184 43.1141
#
#
#
# Elastic Compliance Matrix: (Units=1/GPa)
#
#
# Indices 1 2 3 4 5 6 
#
# 1 0.020633 -0.010805 -0.002496 0.004652 -0.013081 0.004041
# 2 -0.010805 0.024056 -0.001759 0.001612 0.001552 -0.009842
# 3 -0.002496 -0.001759 0.006524 -0.002819 -0.001600 0.001591
# 4 0.004652 0.001612 -0.002819 0.029398 0.000498 -0.006640
# 5 -0.013081 0.001552 -0.001600 0.000498 0.038648 -0.003826
# 6 0.004041 -0.009842 0.001591 -0.006640 -0.003826 0.028703
#
#
# Mechanical properties :
#
#
# Convention : Reuss Voigt Hill
#
# Bulk Modulus (GPa) = 47.40625 75.82506 61.61565
# Shear Modulus (GPa) = 27.01038 39.76369 33.38703
#
# Velocity S-wave (km/s) = 3.25954 3.95489 3.62393
# Velocity P-wave (km/s) = 5.72830 7.11904 6.46120
#
# Compressibility (1/GPa) = 0.02109426
#
# Stress axis : x y z
#
# Youngs Moduli (GPa) = 48.46543 41.56946 153.26901
#
# Poissons Ratio (x) = 0.44915 0.38261
# Poissons Ratio (y) = 0.52365 0.26956
# Poissons Ratio (z) = 0.12099 0.07311
#
# Static dielectric constant tensor:
#      x y z
#    x 2.147830 -0.016290 0.022850 
#    y -0.016290 2.066190 0.061460 
#    z 0.022850 0.061460 1.977780 
# 
# From -- ./inp_files/480327.got.cif
#   From: 2010.05.17/outbox.cif.g08.bks.cpg/sg2_241_cif.got.tgz:480327.got - 2010.06.03 11:33:40.
