data_PCOD9014743
_publ_section_title
;
Structure prediction by ZEFSAII (Michael W. Deem and Ramdas Pophale) SiO2 
 PCOD9014743
Probable space group: P -1
;
_chemical_formula_sum "Si O2"
_cell_formula_units_Z 15
_cell_length_a 17.312229
_cell_length_b 11.956783
_cell_length_c 6.393261
_cell_angle_alpha 129.185681
_cell_angle_beta 55.104581
_cell_angle_gamma 136.424880
_cell_volume 690.687227
_symmetry_space_group_name_H-M "P -1"
_symmetry_group_IT_number 2
_symmetry_cell_setting 'triclinic'
loop_
_space_group_symop_operation_xyz
x,y,z
-x,-y,-z
loop_
_atom_site_type_symbol
_atom_site_label
_atom_site_fract_x
_atom_site_fract_y
_atom_site_fract_z
Si Si1 0.526911 0.359447 0.853704
Si Si2 0.849725 0.273533 0.455874
Si Si3 0.110708 0.863218 0.386352
Si Si4 0.000000 0.000000 0.000000
Si Si5 0.411118 0.820837 0.801288
Si Si6 0.265581 0.544183 0.065114
Si Si7 0.312659 0.004822 0.929854
Si Si8 0.030967 0.252028 0.916760
O O1 0.539011 0.262894 0.521115
O O2 0.643663 0.452024 0.918699
O O3 0.422388 0.201264 0.963114
O O4 0.500000 0.500000 0.000000
O O5 0.867228 0.260805 0.659043
O O6 0.803262 0.392135 0.628032
O O7 0.750013 0.081675 0.294551
O O8 0.964188 0.326985 0.219872
O O9 0.087728 0.963888 0.711012
O O10 0.998238 0.756399 0.289446
O O11 0.217722 0.982768 0.209935
O O12 0.020267 0.935939 0.121859
O O13 0.348968 0.880860 0.817452
O O14 0.332868 0.679285 0.931641
O O15 0.500000 0.000000 0.000000
O O16 0.163338 0.362110 0.908685
#
# Coordination Sequence:
#
# PCOD9014743 Si02
#       8
#     2   2   2   1   2   2   2   2
#     4  12  29  46  69 106 147 182 237 303 363 418
#     4  10  21  41  69 102 133 180 232 289 343 423
#     4  10  22  40  70  99 133 182 233 283 342 426
#     4  10  22  44  64  92 140 190 226 272 360 424
#     4  12  24  45  76 100 136 190 246 290 347 426
#     4  12  24  43  70 101 140 182 233 293 361 408
#     4  11  22  44  72 101 136 187 239 286 348 430
#     4  10  24  40  66 101 142 180 231 286 350 427
#
# _framework density 21.717499
#
# number of rings (size 3 to 8) (size 9 to 14) (size 15 to 20)
#    0.000    1.067    4.000    2.000    0.000    7.467 
#    0.000    0.000    0.000    0.000    0.000    0.000 
#    0.000    0.000    0.000    0.000    0.000    0.000 
#
# Total GULP energy -83543.766761 kJ/mol
# GULP energy per Si atom -5569.584451 kJ/mol
# Density = 2.166807 g / cm^3
# Si number density = 21.717499 Si / 1000 Ang^3
#
#
#
# Elastic Constant Matrix: (Units=GPa)
#
#
# Indices 1 2 3 4 5 6 
#
# 1 189.9055 49.9205 38.6931 16.4990 9.4476 -0.8245
# 2 49.9205 45.3783 34.2816 5.1381 1.5469 9.5627
# 3 38.6931 34.2816 81.1483 6.7020 -5.4963 3.1509
# 4 16.4990 5.1381 6.7020 7.5981 -4.4571 -0.2683
# 5 9.4476 1.5469 -5.4963 -4.4571 44.7957 6.7376
# 6 -0.8245 9.5627 3.1509 -0.2683 6.7376 42.3619
#
#
#
# Elastic Compliance Matrix: (Units=1/GPa)
#
#
# Indices 1 2 3 4 5 6 
#
# 1 0.009127 -0.008970 0.000426 -0.016125 -0.003564 0.002635
# 2 -0.008970 0.044397 -0.014261 0.001808 0.000165 -0.009151
# 3 0.000426 -0.014261 0.018764 -0.006716 0.001811 0.001501
# 4 -0.016125 0.001808 -0.006716 0.183649 0.021152 -0.002424
# 5 -0.003564 0.000165 0.001811 0.021152 0.026035 -0.004248
# 6 0.002635 -0.009151 0.001501 -0.002424 -0.004248 0.026272
#
#
# Mechanical properties :
#
#
# Convention : Reuss Voigt Hill
#
# Bulk Modulus (GPa) = 37.48692 62.46914 49.97803
# Shear Modulus (GPa) = 13.78373 31.85362 22.81867
#
# Velocity S-wave (km/s) = 2.52203 3.83394 3.24497
# Velocity P-wave (km/s) = 5.07735 6.95886 6.09119
#
# Compressibility (1/GPa) = 0.02667597
#
# Stress axis : x y z
#
# Youngs Moduli (GPa) = 109.56944 22.52429 53.29345
#
# Poissons Ratio (x) = 0.20204 -0.02269
# Poissons Ratio (y) = 0.98282 0.76004
# Poissons Ratio (z) = -0.04664 0.32123
#
# Static dielectric constant tensor:
#      x y z
#    x 1.817740 0.014640 -0.002170 
#    y 0.014640 1.839420 0.034600 
#    z -0.002170 0.034600 1.792280 
# 
# From -- ./inp_files/94022.got.cif
#   From: 2010.05.17/outbox.cif.g08.bks.cpg/sg2_48_cif.got.tgz:94022.got - 2010.06.03 11:33:40.
