data_PCOD9014996
_publ_section_title
;
Structure prediction by ZEFSAII (Michael W. Deem and Ramdas Pophale) SiO2 
 PCOD9014996
Probable space group: P -1
;
_chemical_formula_sum "Si O2"
_cell_formula_units_Z 16
_cell_length_a 13.563137
_cell_length_b 12.088434
_cell_length_c 14.846983
_cell_angle_alpha 146.192023
_cell_angle_beta 51.123816
_cell_angle_gamma 103.179027
_cell_volume 775.472124
_symmetry_space_group_name_H-M "P -1"
_symmetry_group_IT_number 2
_symmetry_cell_setting 'triclinic'
loop_
_space_group_symop_operation_xyz
x,y,z
-x,-y,-z
loop_
_atom_site_type_symbol
_atom_site_label
_atom_site_fract_x
_atom_site_fract_y
_atom_site_fract_z
Si Si1 0.600479 0.213456 0.703738
Si Si2 0.310273 0.752101 0.811006
Si Si3 0.918101 0.668757 0.753157
Si Si4 0.557039 0.157443 0.035396
Si Si5 0.939004 0.326921 0.151985
Si Si6 0.687523 0.233108 0.465868
Si Si7 0.265317 0.142054 0.452593
Si Si8 0.591262 0.937948 0.223278
O O1 0.664075 0.217310 0.574117
O O2 0.468532 0.167357 0.743264
O O3 0.741494 0.991900 0.546750
O O4 0.500000 0.500000 0.000000
O O5 0.500000 0.500000 0.500000
O O6 0.333010 0.836786 0.950587
O O7 0.206718 0.661659 0.793286
O O8 0.435383 0.093969 0.346811
O O9 0.000000 0.500000 0.500000
O O10 0.794747 0.981199 0.008482
O O11 0.775837 0.688993 0.903287
O O12 0.060352 0.590443 0.690369
O O13 0.392851 0.472004 0.318305
O O14 0.500000 0.000000 0.000000
O O15 0.671752 0.020307 0.786754
O O16 0.908917 0.552276 0.259396
O O17 0.112430 0.015521 0.836129
O O18 0.597840 0.145723 0.405653
#
# Coordination Sequence:
#
# PCOD9014996 Si02
#       8
#     2   2   2   2   2   2   2   2
#     4  10  21  41  70  95 130 171 226 266 320 387
#     4  12  25  40  61  89 130 177 216 258 326 397
#     4  11  23  40  64  94 136 172 209 270 329 386
#     4  12  24  40  67  95 130 174 223 270 325 397
#     4  11  24  41  62  98 134 169 220 270 334 388
#     4  11  22  43  69  96 131 173 218 278 327 377
#     4  10  22  40  63  93 132 164 221 259 324 384
#     4   9  21  39  67  98 125 173 223 261 322 396
#
# _framework density 20.632593
#
# number of rings (size 3 to 8) (size 9 to 14) (size 15 to 20)
#    0.750    0.500    1.250    6.000    0.000    5.500 
#    0.000    0.000    0.000    3.750    0.000    0.000 
#    0.000    0.000    0.000    0.000    0.000    0.000 
#
# Total GULP energy -89229.150029 kJ/mol
# GULP energy per Si atom -5576.821877 kJ/mol
# Density = 2.058563 g / cm^3
# Si number density = 20.632593 Si / 1000 Ang^3
#
#
#
# Elastic Constant Matrix: (Units=GPa)
#
#
# Indices 1 2 3 4 5 6 
#
# 1 122.4131 40.6712 30.2733 2.4180 18.0278 -22.8745
# 2 40.6712 105.5557 38.5956 16.5612 6.2466 -24.0735
# 3 30.2733 38.5956 85.5035 16.8253 5.9017 -11.4289
# 4 2.4180 16.5612 16.8253 39.1886 -16.4800 0.3179
# 5 18.0278 6.2466 5.9017 -16.4800 30.4298 -3.0781
# 6 -22.8745 -24.0735 -11.4289 0.3179 -3.0781 34.8653
#
#
#
# Elastic Compliance Matrix: (Units=1/GPa)
#
#
# Indices 1 2 3 4 5 6 
#
# 1 0.011092 -0.001887 -0.001593 -0.001949 -0.006435 0.004902
# 2 -0.001887 0.014249 -0.003339 -0.006099 -0.003731 0.007232
# 3 -0.001593 -0.003339 0.015817 -0.007559 -0.005388 0.001427
# 4 -0.001949 -0.006099 -0.007559 0.042579 0.026322 -0.006032
# 5 -0.006435 -0.003731 -0.005388 0.026322 0.052317 -0.004185
# 6 0.004902 0.007232 0.001427 -0.006032 -0.004185 0.037045
#
#
# Mechanical properties :
#
#
# Convention : Reuss Voigt Hill
#
# Bulk Modulus (GPa) = 36.33755 59.17250 47.75502
# Shear Modulus (GPa) = 25.52204 34.49223 30.00714
#
# Velocity S-wave (km/s) = 3.52088 4.09312 3.81774
# Velocity P-wave (km/s) = 5.84626 7.14700 6.52910
#
# Compressibility (1/GPa) = 0.02751974
#
# Stress axis : x y z
#
# Youngs Moduli (GPa) = 90.15520 70.18142 63.22440
#
# Poissons Ratio (x) = 0.13243 0.10069
# Poissons Ratio (y) = 0.17012 0.21113
# Poissons Ratio (z) = 0.14358 0.23436
#
# Static dielectric constant tensor:
#      x y z
#    x 1.729300 -0.024060 0.012380 
#    y -0.024060 1.850510 -0.034020 
#    z 0.012380 -0.034020 1.755350 
# 
# From -- ./inp_files/532789.got.cif
#   From: 2010.05.17/outbox.cif.g08.bks.cpg/sg2_267_cif.got.tgz:532789.got - 2010.06.03 11:33:40.
