data_PCOD9014801
_publ_section_title
;
Structure prediction by ZEFSAII (Michael W. Deem and Ramdas Pophale) SiO2 
 PCOD9014801
Probable space group: P -1
;
_chemical_formula_sum "Si O2"
_cell_formula_units_Z 16
_cell_length_a 8.422591
_cell_length_b 12.480112
_cell_length_c 10.739801
_cell_angle_alpha 143.682872
_cell_angle_beta 82.494903
_cell_angle_gamma 105.304592
_cell_volume 638.203004
_symmetry_space_group_name_H-M "P -1"
_symmetry_group_IT_number 2
_symmetry_cell_setting 'triclinic'
loop_
_space_group_symop_operation_xyz
x,y,z
-x,-y,-z
loop_
_atom_site_type_symbol
_atom_site_label
_atom_site_fract_x
_atom_site_fract_y
_atom_site_fract_z
Si Si1 0.618281 0.911095 0.170143
Si Si2 0.657985 0.324013 0.857151
Si Si3 0.497555 0.712983 0.430741
Si Si4 0.175191 0.397170 0.721317
Si Si5 0.807917 0.913483 0.897102
Si Si6 0.875556 0.080526 0.505542
Si Si7 0.125566 0.702643 0.831797
Si Si8 0.220694 0.471569 0.396608
O O1 0.479437 0.737318 0.078346
O O2 0.685631 0.898993 0.013721
O O3 0.546351 0.092749 0.354061
O O4 0.771406 0.947523 0.286222
O O5 0.568961 0.339090 0.750869
O O6 0.747785 0.157928 0.673663
O O7 0.790789 0.515542 0.061796
O O8 0.688038 0.714483 0.418011
O O9 0.391743 0.558331 0.391532
O O10 0.191750 0.579871 0.807218
O O11 0.993197 0.261882 0.595646
O O12 0.793843 0.075275 0.954852
O O13 0.781285 0.696181 0.663085
O O14 0.000000 0.000000 0.000000
O O15 0.000000 0.000000 0.500000
O O16 0.173140 0.639766 0.631317
O O17 0.924708 0.628592 0.779351
#
# Coordination Sequence:
#
# PCOD9014801 Si02
#       8
#     2   2   2   2   2   2   2   2
#     4  11  22  44  67  95 134 181 225 272 338 411
#     4  11  24  43  67  95 138 176 223 272 339 410
#     4  11  22  42  66  94 134 184 216 273 345 404
#     4  12  25  40  66 101 134 173 225 281 335 389
#     4  10  22  39  67  98 124 179 228 269 329 406
#     4  11  24  41  67 100 134 172 222 280 338 395
#     4  10  22  42  64  97 134 172 230 283 325 396
#     4  10  21  41  69  92 132 181 223 269 344 404
#
# _framework density 25.070394
#
# number of rings (size 3 to 8) (size 9 to 14) (size 15 to 20)
#    0.000    1.250    1.250    6.000    3.500    3.500 
#    2.250    1.250    0.000    0.000    0.000    0.000 
#    0.000    0.000    0.000    0.000    0.000    0.000 
#
# Total GULP energy -89643.959009 kJ/mol
# GULP energy per Si atom -5602.747438 kJ/mol
# Density = 2.501333 g / cm^3
# Si number density = 25.070394 Si / 1000 Ang^3
#
#
#
# Elastic Constant Matrix: (Units=GPa)
#
#
# Indices 1 2 3 4 5 6 
#
# 1 86.5879 28.6621 11.0023 -4.6589 3.5359 -0.1158
# 2 28.6621 79.1171 1.3005 28.2197 -7.2511 -0.8230
# 3 11.0023 1.3005 53.2493 15.1267 -2.9932 -8.2725
# 4 -4.6589 28.2197 15.1267 38.0349 -2.2164 -5.2356
# 5 3.5359 -7.2511 -2.9932 -2.2164 38.5512 4.0683
# 6 -0.1158 -0.8230 -8.2725 -5.2356 4.0683 52.4557
#
#
#
# Elastic Compliance Matrix: (Units=1/GPa)
#
#
# Indices 1 2 3 4 5 6 
#
# 1 0.016847 -0.010836 -0.006975 0.012719 -0.003426 0.000302
# 2 -0.010836 0.025140 0.008326 -0.023132 0.005147 -0.001024
# 3 -0.006975 0.008326 0.025242 -0.016593 0.002979 0.002209
# 4 0.012719 -0.023132 -0.016593 0.051721 -0.004099 0.002528
# 5 -0.003426 0.005147 0.002979 -0.004099 0.027428 -0.001993
# 6 0.000302 -0.001024 0.002209 0.002528 -0.001993 0.019804
#
#
# Mechanical properties :
#
#
# Convention : Reuss Voigt Hill
#
# Bulk Modulus (GPa) = 20.72134 33.43157 27.07645
# Shear Modulus (GPa) = 24.84633 37.67434 31.26034
#
# Velocity S-wave (km/s) = 3.15153 3.88073 3.53498
# Velocity P-wave (km/s) = 4.63962 5.78309 5.24262
#
# Compressibility (1/GPa) = 0.04825942
#
# Stress axis : x y z
#
# Youngs Moduli (GPa) = 59.35830 39.77681 39.61705
#
# Poissons Ratio (x) = 0.43102 0.27633
# Poissons Ratio (y) = 0.64321 -0.32987
# Poissons Ratio (z) = 0.41403 -0.33120
#
# Static dielectric constant tensor:
#      x y z
#    x 1.950200 -0.028120 -0.017510 
#    y -0.028120 1.979290 0.021200 
#    z -0.017510 0.021200 1.995450 
# 
# From -- ./inp_files/391606.got.cif
#   From: 2010.05.17/outbox.cif.g08.bks.cpg/sg2_196_cif.got.tgz:391606.got - 2010.06.03 11:33:40.
