data_PCOD9014638
_publ_section_title
;
Structure prediction by ZEFSAII (Michael W. Deem and Ramdas Pophale) SiO2 
 PCOD9014638
Probable space group: P -1
;
_chemical_formula_sum "Si O2"
_cell_formula_units_Z 13
_cell_length_a 6.227573
_cell_length_b 8.224469
_cell_length_c 10.124400
_cell_angle_alpha 92.259842
_cell_angle_beta 65.843825
_cell_angle_gamma 77.061969
_cell_volume 456.100987
_symmetry_space_group_name_H-M "P -1"
_symmetry_group_IT_number 2
_symmetry_cell_setting 'triclinic'
loop_
_space_group_symop_operation_xyz
x,y,z
-x,-y,-z
loop_
_atom_site_type_symbol
_atom_site_label
_atom_site_fract_x
_atom_site_fract_y
_atom_site_fract_z
Si Si1 0.000000 0.500000 0.500000
Si Si2 0.835693 0.375508 0.005293
Si Si3 0.612382 0.730550 0.516866
Si Si4 0.319045 0.157271 0.908234
Si Si5 0.433472 0.228226 0.184078
Si Si6 0.125857 0.993367 0.611829
Si Si7 0.265887 0.709376 0.250010
O O1 0.777273 0.548145 0.433984
O O2 0.852876 0.371580 0.607377
O O3 0.744360 0.399905 0.879928
O O4 0.036613 0.198815 0.956503
O O5 0.615966 0.347184 0.145528
O O6 0.000000 0.500000 0.000000
O O7 0.732577 0.710420 0.641466
O O8 0.715294 0.870558 0.423427
O O9 0.321493 0.817369 0.592835
O O10 0.464983 0.269438 0.793856
O O11 0.430575 0.966072 0.831271
O O12 0.344648 0.209721 0.057051
O O13 0.880329 0.096986 0.750390
O O14 0.000000 0.000000 0.500000
#
# Coordination Sequence:
#
# PCOD9014638 Si02
#       7
#     1   2   2   2   2   2   2
#     4  10  24  42  64  98 136 186 210 288 340 408
#     4  11  25  40  65  99 136 181 221 274 347 409
#     4  10  22  40  65  92 137 169 226 278 335 402
#     4  10  22  41  69  97 131 176 221 286 339 399
#     4  10  22  40  68  98 130 171 231 281 334 407
#     4  10  21  41  68  96 126 183 228 281 332 400
#     4  10  23  43  66  97 142 172 232 277 340 409
#
# _framework density 28.502458000000001
#
# number of rings (size 3 to 8) (size 9 to 14) (size 15 to 20)
#    0.000    1.846    0.000    2.308    4.308    7.385 
#    2.769    3.846    0.000    0.000    0.000    0.000 
#    0.000    0.000    0.000    0.000    0.000    0.000 
#
# Total GULP energy -72412.636037 kJ/mol
# GULP energy per Si atom -5570.202772 kJ/mol
# Density = 2.843759 g / cm^3
# Si number density = 28.502458 Si / 1000 Ang^3
#
#
#
# Elastic Constant Matrix: (Units=GPa)
#
#
# Indices 1 2 3 4 5 6 
#
# 1 128.7070 48.2488 44.9817 -6.7280 -4.8599 -20.3927
# 2 48.2488 143.7654 2.7287 -14.7071 -2.0778 -15.6525
# 3 44.9817 2.7287 110.9068 -26.5057 -15.1574 29.7320
# 4 -6.7280 -14.7071 -26.5057 43.5232 12.2160 -0.1880
# 5 -4.8599 -2.0778 -15.1574 12.2160 53.6717 14.9262
# 6 -20.3927 -15.6525 29.7320 -0.1880 14.9262 65.9628
#
#
#
# Elastic Compliance Matrix: (Units=1/GPa)
#
#
# Indices 1 2 3 4 5 6 
#
# 1 0.013051 -0.003812 -0.008443 -0.003647 -0.002610 0.007516
# 2 -0.003812 0.008560 0.002219 0.003712 -0.000207 -0.000090
# 3 -0.008443 0.002219 0.018455 0.009026 0.005725 -0.011671
# 4 -0.003647 0.003712 0.009026 0.030144 -0.003545 -0.003427
# 5 -0.002610 -0.000207 0.005725 -0.003545 0.023231 -0.008703
# 6 0.007516 -0.000090 -0.011671 -0.003427 -0.008703 0.024683
#
#
# Mechanical properties :
#
#
# Convention : Reuss Voigt Hill
#
# Bulk Modulus (GPa) = 50.01798 63.92196 56.96997
# Shear Modulus (GPa) = 34.51585 51.79290 43.15437
#
# Velocity S-wave (km/s) = 3.48369 4.26741 3.89531
# Velocity P-wave (km/s) = 5.81104 6.83788 6.34527
#
# Compressibility (1/GPa) = 0.01999281
#
# Stress axis : x y z
#
# Youngs Moduli (GPa) = 76.62291 116.82137 54.18694
#
# Poissons Ratio (x) = 0.44536 0.45748
# Poissons Ratio (y) = 0.29211 -0.12021
# Poissons Ratio (z) = 0.64690 -0.25917
#
# Static dielectric constant tensor:
#      x y z
#    x 2.278180 0.099500 0.179940 
#    y 0.099500 1.710170 -0.363550 
#    z 0.179940 -0.363550 1.966980 
# 
# From -- ./inp_files/23926.got.cif
#   From: 2010.05.17/outbox.cif.g08.bks.cpg/sg2_12_cif.got.tgz:23926.got - 2010.06.03 11:33:40.
