data_PCOD9014959
_publ_section_title
;
Structure prediction by ZEFSAII (Michael W. Deem and Ramdas Pophale) SiO2 
 PCOD9014959
Probable space group: P -1
;
_chemical_formula_sum "Si O2"
_cell_formula_units_Z 14
_cell_length_a 8.045848
_cell_length_b 6.500762
_cell_length_c 17.448082
_cell_angle_alpha 63.304107
_cell_angle_beta 54.152905
_cell_angle_gamma 58.399105
_cell_volume 616.507619
_symmetry_space_group_name_H-M "P -1"
_symmetry_group_IT_number 2
_symmetry_cell_setting 'triclinic'
loop_
_space_group_symop_operation_xyz
x,y,z
-x,-y,-z
loop_
_atom_site_type_symbol
_atom_site_label
_atom_site_fract_x
_atom_site_fract_y
_atom_site_fract_z
Si Si1 0.351188 0.114969 0.923971
Si Si2 0.518080 0.240644 0.393030
Si Si3 0.724365 0.700759 0.404740
Si Si4 0.115766 0.194361 0.417568
Si Si5 0.228451 0.256369 0.212805
Si Si6 0.607306 0.329467 0.927412
Si Si7 0.239202 0.434703 0.758812
O O1 0.419091 0.295474 0.930996
O O2 0.223885 0.257769 0.860632
O O3 0.581052 0.925964 0.859692
O O4 0.258050 0.941841 0.028762
O O5 0.469587 0.309198 0.484193
O O6 0.303067 0.203820 0.423210
O O7 0.575175 0.447825 0.297460
O O8 0.715097 0.977449 0.377245
O O9 0.707824 0.682753 0.320661
O O10 0.934468 0.469118 0.412617
O O11 0.225038 0.129521 0.315479
O O12 0.000000 0.000000 0.500000
O O13 0.265640 0.515470 0.174049
O O14 0.992296 0.341494 0.223117
O O15 0.500000 0.500000 0.000000
#
# Coordination Sequence:
#
# PCOD9014959 Si02
#       7
#     2   2   2   2   2   2   2
#     4  10  21  41  70  89 122 166 200 259 317 371
#     4  11  24  40  62  86 127 177 212 262 312 363
#     4  10  25  41  59  89 128 169 213 266 303 367
#     4  11  25  41  65  92 127 174 218 259 309 367
#     4  10  23  40  60  95 128 159 210 259 306 374
#     4   9  20  43  67  92 123 158 205 256 316 378
#     4  11  24  39  63  95 126 164 211 256 314 373
#
# _framework density 22.708559000000001
#
# number of rings (size 3 to 8) (size 9 to 14) (size 15 to 20)
#    0.000    1.714    0.000    2.571   12.000    5.143 
#    0.000    6.429    0.000    0.000    0.000    0.000 
#    0.000    0.000    0.000    0.000    0.000    0.000 
#
# Total GULP energy -78206.269500 kJ/mol
# GULP energy per Si atom -5586.162107 kJ/mol
# Density = 2.265687 g / cm^3
# Si number density = 22.708559 Si / 1000 Ang^3
#
#
#
# Elastic Constant Matrix: (Units=GPa)
#
#
# Indices 1 2 3 4 5 6 
#
# 1 92.0700 35.0080 19.0885 -15.7745 14.9977 5.7619
# 2 35.0080 80.2311 7.3517 6.9187 4.1618 1.5315
# 3 19.0885 7.3517 82.1891 -25.8295 12.9667 9.3300
# 4 -15.7745 6.9187 -25.8295 38.1762 2.7593 -2.1433
# 5 14.9977 4.1618 12.9667 2.7593 38.3149 -9.0951
# 6 5.7619 1.5315 9.3300 -2.1433 -9.0951 25.2161
#
#
#
# Elastic Compliance Matrix: (Units=1/GPa)
#
#
# Indices 1 2 3 4 5 6 
#
# 1 0.017005 -0.007903 0.002052 0.010117 -0.008755 -0.006463
# 2 -0.007903 0.016712 -0.003212 -0.008584 0.003587 0.002543
# 3 0.002052 -0.003212 0.019390 0.014744 -0.010443 -0.009961
# 4 0.010117 -0.008584 0.014744 0.042381 -0.013052 -0.008351
# 5 -0.008755 0.003587 -0.010443 -0.013052 0.037936 0.018220
# 6 -0.006463 0.002543 -0.009961 -0.008351 0.018220 0.050527
#
#
# Mechanical properties :
#
#
# Convention : Reuss Voigt Hill
#
# Bulk Modulus (GPa) = 28.58656 41.93184 35.25920
# Shear Modulus (GPa) = 23.39335 33.21090 28.30212
#
# Velocity S-wave (km/s) = 3.21309 3.82839 3.53416
# Velocity P-wave (km/s) = 5.13624 6.16826 5.67576
#
# Compressibility (1/GPa) = 0.03498148
#
# Stress axis : x y z
#
# Youngs Moduli (GPa) = 58.80742 59.83668 51.57352
#
# Poissons Ratio (x) = 0.47287 -0.10582
# Poissons Ratio (y) = 0.46474 0.16563
# Poissons Ratio (z) = -0.12066 0.19217
#
# Static dielectric constant tensor:
#      x y z
#    x 1.852300 0.010530 -0.002980 
#    y 0.010530 1.856210 -0.011960 
#    z -0.002980 -0.011960 1.878400 
# 
# From -- ./inp_files/48104.got.cif
#   From: 2010.05.17/outbox.cif.g08.bks.cpg/sg2_25_cif.got.tgz:48104.got - 2010.06.03 11:33:40.
