data_PCOD9014490
_publ_section_title
;
Structure prediction by ZEFSAII (Michael W. Deem and Ramdas Pophale) SiO2 
 PCOD9014490
Probable space group: P -1
;
_chemical_formula_sum "Si O2"
_cell_formula_units_Z 13
_cell_length_a 7.747511
_cell_length_b 13.056116
_cell_length_c 8.256069
_cell_angle_alpha 87.958177
_cell_angle_beta 113.726674
_cell_angle_gamma 48.236317
_cell_volume 510.786062
_symmetry_space_group_name_H-M "P -1"
_symmetry_group_IT_number 2
_symmetry_cell_setting 'triclinic'
loop_
_space_group_symop_operation_xyz
x,y,z
-x,-y,-z
loop_
_atom_site_type_symbol
_atom_site_label
_atom_site_fract_x
_atom_site_fract_y
_atom_site_fract_z
Si Si1 0.183605 0.642150 0.296773
Si Si2 0.000000 0.500000 0.000000
Si Si3 0.772546 0.144039 0.794143
Si Si4 0.463741 0.167237 0.379003
Si Si5 0.234186 0.422502 0.725328
Si Si6 0.457559 0.554679 0.801008
Si Si7 0.126935 0.175895 0.524164
O O1 0.500000 0.500000 0.500000
O O2 0.146386 0.770126 0.204371
O O3 0.239179 0.542694 0.167491
O O4 0.945167 0.737177 0.338244
O O5 0.858820 0.549155 0.128457
O O6 0.281749 0.313429 0.187228
O O7 0.681836 0.136937 0.585137
O O8 0.495862 0.246655 0.792858
O O9 0.000000 0.000000 0.000000
O O10 0.250140 0.194881 0.422649
O O11 0.649641 0.006313 0.365083
O O12 0.338976 0.492165 0.708366
O O13 0.000000 0.500000 0.500000
O O14 0.189243 0.734454 0.656044
O O15 0.500000 0.500000 0.000000
#
# Coordination Sequence:
#
# PCOD9014490 Si02
#       7
#     2   1   2   2   2   2   2
#     4   9  22  43  67  96 140 185 230 285 364 427
#     4  12  24  44  72 104 130 198 244 292 360 424
#     4  11  25  45  70 105 144 187 238 307 361 424
#     4  11  25  45  71  99 148 185 243 302 351 444
#     4  11  23  47  72  99 143 189 243 293 357 439
#     4  10  21  41  68 101 134 183 232 293 357 429
#     4  10  22  46  65 101 139 189 233 291 365 425
#
# _framework density 25.450968
#
# number of rings (size 3 to 8) (size 9 to 14) (size 15 to 20)
#    0.000    1.538    3.077    0.000    6.462    3.077 
#    5.538    0.769    0.000    0.000    0.000    0.000 
#    0.000    0.000    0.000    0.000    0.000    0.000 
#
# Total GULP energy -72378.461683 kJ/mol
# GULP energy per Si atom -5567.573976 kJ/mol
# Density = 2.539304 g / cm^3
# Si number density = 25.450968 Si / 1000 Ang^3
#
#
#
# Elastic Constant Matrix: (Units=GPa)
#
#
# Indices 1 2 3 4 5 6 
#
# 1 136.7274 63.1806 56.2898 -15.5582 -41.8158 -21.8930
# 2 63.1806 204.1830 102.0439 -16.3254 -28.1386 -36.0987
# 3 56.2898 102.0439 204.7486 -26.4534 -36.4405 -9.5798
# 4 -15.5582 -16.3254 -26.4534 62.1175 -6.5043 -14.4987
# 5 -41.8158 -28.1386 -36.4405 -6.5043 45.6695 0.0288
# 6 -21.8930 -36.0987 -9.5798 -14.4987 0.0288 49.5979
#
#
#
# Elastic Compliance Matrix: (Units=1/GPa)
#
#
# Indices 1 2 3 4 5 6 
#
# 1 0.013361 -0.000614 0.000056 0.006247 0.012785 0.007281
# 2 -0.000614 0.008040 -0.002828 0.002348 0.002466 0.005719
# 3 0.000056 -0.002828 0.007532 0.003048 0.004753 0.000309
# 4 0.006247 0.002348 0.003048 0.023734 0.012972 0.011986
# 5 0.012785 0.002466 0.004753 0.012972 0.040754 0.012124
# 6 0.007281 0.005719 0.000309 0.011986 0.012124 0.031095
#
#
# Mechanical properties :
#
#
# Convention : Reuss Voigt Hill
#
# Bulk Modulus (GPa) = 45.12440 109.85416 77.48928
# Shear Modulus (GPa) = 36.05527 53.08662 44.57094
#
# Velocity S-wave (km/s) = 3.76793 4.57205 4.18933
# Velocity P-wave (km/s) = 6.05790 8.43376 7.34256
#
# Compressibility (1/GPa) = 0.02216096
#
# Stress axis : x y z
#
# Youngs Moduli (GPa) = 74.84322 124.38413 132.75806
#
# Poissons Ratio (x) = 0.07633 -0.00741
# Poissons Ratio (y) = 0.04593 0.37549
# Poissons Ratio (z) = -0.00418 0.35181
#
# Static dielectric constant tensor:
#      x y z
#    x 1.960610 -0.075840 -0.013840 
#    y -0.075840 2.070580 0.193490 
#    z -0.013840 0.193490 2.065750 
# 
# From -- ./inp_files/193121.got.cif
#   From: 2010.05.17/outbox.cif.g08.bks.cpg/sg2_97_cif.got.tgz:193121.got - 2010.06.03 11:33:40.
