data_PCOD9014689
_publ_section_title
;
Structure prediction by ZEFSAII (Michael W. Deem and Ramdas Pophale) SiO2 
 PCOD9014689
Probable space group: P -1
;
_chemical_formula_sum "Si O2"
_cell_formula_units_Z 14
_cell_length_a 13.851086
_cell_length_b 9.093005
_cell_length_c 16.985564
_cell_angle_alpha 128.116536
_cell_angle_beta 157.297565
_cell_angle_gamma 47.761684
_cell_volume 611.244764
_symmetry_space_group_name_H-M "P -1"
_symmetry_group_IT_number 2
_symmetry_cell_setting 'triclinic'
loop_
_space_group_symop_operation_xyz
x,y,z
-x,-y,-z
loop_
_atom_site_type_symbol
_atom_site_label
_atom_site_fract_x
_atom_site_fract_y
_atom_site_fract_z
Si Si1 0.448804 0.435986 0.253833
Si Si2 0.715314 0.780507 0.078644
Si Si3 0.316114 0.226711 0.419553
Si Si4 0.819675 0.385184 0.215222
Si Si5 0.075560 0.008839 0.389161
Si Si6 0.963778 0.730048 0.410908
Si Si7 0.601747 0.683667 0.655395
O O1 0.488291 0.648454 0.366346
O O2 0.322453 0.361996 0.210276
O O3 0.757442 0.307090 0.433074
O O4 0.339850 0.380425 0.071803
O O5 0.777447 0.721623 0.195763
O O6 0.955429 0.832929 0.237528
O O7 0.500000 0.000000 0.000000
O O8 0.230947 0.296656 0.288312
O O9 0.035479 0.286136 0.274832
O O10 0.500000 0.000000 0.500000
O O11 0.938795 0.554107 0.388185
O O12 0.884538 0.199622 0.262294
O O13 0.500000 0.500000 0.000000
O O14 0.092624 0.082589 0.514613
O O15 0.374260 0.900754 0.550852
O O16 0.500000 0.500000 0.500000
#
# Coordination Sequence:
#
# PCOD9014689 Si02
#       7
#     2   2   2   2   2   2   2
#     4  10  22  41  70 105 138 184 233 296 356 414
#     4  12  22  38  66 103 143 175 238 293 352 423
#     4  10  21  45  76  97 142 196 233 288 357 427
#     4  11  25  43  69 105 141 181 239 297 352 416
#     4  12  22  41  70  99 144 190 230 292 361 417
#     4  11  23  42  67 103 143 183 232 300 357 415
#     4  10  21  41  68  98 136 186 237 280 354 423
#
# _framework density 22.904081999999999
#
# number of rings (size 3 to 8) (size 9 to 14) (size 15 to 20)
#    0.000    1.143    4.286    2.571    0.000    0.000 
#    0.000    4.286    3.143    6.857    0.000    0.000 
#    0.000    0.000    0.000    0.000    0.000    0.000 
#
# Total GULP energy -77955.377751 kJ/mol
# GULP energy per Si atom -5568.241268 kJ/mol
# Density = 2.285195 g / cm^3
# Si number density = 22.904082 Si / 1000 Ang^3
#
#
#
# Elastic Constant Matrix: (Units=GPa)
#
#
# Indices 1 2 3 4 5 6 
#
# 1 125.4174 56.1552 67.0262 -4.2863 -15.8763 15.7586
# 2 56.1552 157.2621 49.2750 -9.0917 -4.2217 2.4377
# 3 67.0262 49.2750 73.4887 -6.7327 -12.3604 -1.7180
# 4 -4.2863 -9.0917 -6.7327 33.7219 -0.5421 1.3744
# 5 -15.8763 -4.2217 -12.3604 -0.5421 35.4425 3.5948
# 6 15.7586 2.4377 -1.7180 1.3744 3.5948 38.4340
#
#
#
# Elastic Compliance Matrix: (Units=1/GPa)
#
#
# Indices 1 2 3 4 5 6 
#
# 1 0.018372 -0.001558 -0.015385 -0.000757 0.003521 -0.008424
# 2 -0.001558 0.008272 -0.004214 0.001172 -0.001164 -0.000007
# 3 -0.015385 -0.004214 0.031385 0.002910 0.002824 0.007610
# 4 -0.000757 0.001172 0.002910 0.030512 0.001369 -0.000853
# 5 0.003521 -0.001164 0.002824 0.001369 0.031085 -0.004200
# 6 -0.008424 -0.000007 0.007610 -0.000853 -0.004200 0.030237
#
#
# Mechanical properties :
#
#
# Convention : Reuss Voigt Hill
#
# Bulk Modulus (GPa) = 63.63786 77.89788 70.76787
# Shear Modulus (GPa) = 25.32733 33.76715 29.54724
#
# Velocity S-wave (km/s) = 3.32896 3.84381 3.59561
# Velocity P-wave (km/s) = 6.52846 7.33377 6.94280
#
# Compressibility (1/GPa) = 0.01571392
#
# Stress axis : x y z
#
# Youngs Moduli (GPa) = 54.43176 120.88680 31.86247
#
# Poissons Ratio (x) = 0.18835 0.49021
# Poissons Ratio (y) = 0.08481 0.13427
# Poissons Ratio (z) = 0.83745 0.50941
#
# Static dielectric constant tensor:
#      x y z
#    x 2.057960 0.056240 -0.054990 
#    y 0.056240 1.936480 -0.082260 
#    z -0.054990 -0.082260 1.992210 
# 
# From -- ./inp_files/572907.got.cif
#   From: 2010.05.17/outbox.cif.g08.bks.cpg/sg2_287_cif.got.tgz:572907.got - 2010.06.03 11:33:40.
