data_PCOD9014919
_publ_section_title
;
Structure prediction by ZEFSAII (Michael W. Deem and Ramdas Pophale) SiO2 
 PCOD9014919
Probable space group: P -1
;
_chemical_formula_sum "Si O2"
_cell_formula_units_Z 14
_cell_length_a 15.748493
_cell_length_b 9.041520
_cell_length_c 6.489720
_cell_angle_alpha 68.547578
_cell_angle_beta 123.520430
_cell_angle_gamma 129.631085
_cell_volume 593.197978
_symmetry_space_group_name_H-M "P -1"
_symmetry_group_IT_number 2
_symmetry_cell_setting 'triclinic'
loop_
_space_group_symop_operation_xyz
x,y,z
-x,-y,-z
loop_
_atom_site_type_symbol
_atom_site_label
_atom_site_fract_x
_atom_site_fract_y
_atom_site_fract_z
Si Si1 0.278784 0.567365 0.738839
Si Si2 0.328472 0.293687 0.745921
Si Si3 0.542460 0.387331 0.753148
Si Si4 0.817777 0.036500 0.946636
Si Si5 0.591301 0.014462 0.443177
Si Si6 0.888620 0.936209 0.688079
Si Si7 0.973299 0.721947 0.626090
O O1 0.322548 0.476914 0.673591
O O2 0.356013 0.795354 0.718401
O O3 0.136721 0.472056 0.530068
O O4 0.316651 0.515788 0.033273
O O5 0.464391 0.346934 0.877794
O O6 0.255590 0.172904 0.507507
O O7 0.250457 0.145835 0.899532
O O8 0.500000 0.500000 0.500000
O O9 0.488594 0.184044 0.682532
O O10 0.711752 0.042847 0.693226
O O11 0.891950 0.993983 0.900259
O O12 0.908173 0.228722 0.106503
O O13 0.500000 0.000000 0.500000
O O14 0.968811 0.128627 0.561996
O O15 0.915821 0.793140 0.681897
#
# Coordination Sequence:
#
# PCOD9014919 Si02
#       7
#     2   2   2   2   2   2   2
#     4  11  24  42  63 102 146 170 220 290 338 409
#     4  10  21  41  70 101 130 173 236 284 331 399
#     4  12  24  44  74  97 129 185 235 285 341 403
#     4  11  21  41  74  96 139 182 232 276 336 410
#     4  12  26  45  66 100 141 181 225 282 350 407
#     4   9  18  38  67 102 134 174 231 287 325 395
#     4   9  21  39  66 103 138 176 229 282 336 399
#
# _framework density 23.600888999999999
#
# number of rings (size 3 to 8) (size 9 to 14) (size 15 to 20)
#    0.000    1.429    1.429    4.714    0.000    0.571 
#    5.143    0.714    0.000    0.000    0.000    0.000 
#    0.000    0.000    0.000    0.000    0.000    0.000 
#
# Total GULP energy -78113.712743 kJ/mol
# GULP energy per Si atom -5579.550910 kJ/mol
# Density = 2.354717 g / cm^3
# Si number density = 23.600889 Si / 1000 Ang^3
#
#
#
# Elastic Constant Matrix: (Units=GPa)
#
#
# Indices 1 2 3 4 5 6 
#
# 1 77.4261 9.0571 15.3499 3.9227 -9.1121 6.2094
# 2 9.0571 125.9278 57.9345 25.3768 4.6410 -6.0171
# 3 15.3499 57.9345 132.5929 31.4621 3.5381 6.3559
# 4 3.9227 25.3768 31.4621 36.6304 8.5900 3.0613
# 5 -9.1121 4.6410 3.5381 8.5900 31.6278 5.4416
# 6 6.2094 -6.0171 6.3559 3.0613 5.4416 26.6228
#
#
#
# Elastic Compliance Matrix: (Units=1/GPa)
#
#
# Indices 1 2 3 4 5 6 
#
# 1 0.014221 -0.000745 -0.001016 -0.001030 0.005325 -0.004212
# 2 -0.000745 0.010851 -0.003813 -0.004295 -0.000940 0.004223
# 3 -0.001016 -0.003813 0.011040 -0.006820 0.001358 -0.002754
# 4 -0.001030 -0.004295 -0.006820 0.038511 -0.009075 -0.001676
# 5 0.005325 -0.000940 0.001358 -0.009075 0.037031 -0.008304
# 6 -0.004212 0.004223 -0.002754 -0.001676 -0.008304 0.042046
#
#
# Mechanical properties :
#
#
# Convention : Reuss Voigt Hill
#
# Bulk Modulus (GPa) = 40.06077 55.62553 47.84315
# Shear Modulus (GPa) = 28.87339 35.88321 32.37830
#
# Velocity S-wave (km/s) = 3.50151 3.90348 3.70795
# Velocity P-wave (km/s) = 5.77569 6.62847 6.21672
#
# Compressibility (1/GPa) = 0.02496208
#
# Stress axis : x y z
#
# Youngs Moduli (GPa) = 70.31903 92.15928 90.58293
#
# Poissons Ratio (x) = 0.06867 0.09207
# Poissons Ratio (y) = 0.05239 0.34540
# Poissons Ratio (z) = 0.07147 0.35141
#
# Static dielectric constant tensor:
#      x y z
#    x 1.912310 0.042370 0.073760 
#    y 0.042370 1.904220 0.029200 
#    z 0.073760 0.029200 2.042030 
# 
# From -- ./inp_files/106571.got.cif
#   From: 2010.05.17/outbox.cif.g08.bks.cpg/sg2_54_cif.got.tgz:106571.got - 2010.06.03 11:33:40.
