data_PCOD9014767
_publ_section_title
;
Structure prediction by ZEFSAII (Michael W. Deem and Ramdas Pophale) SiO2 
 PCOD9014767
Probable space group: P -1
;
_chemical_formula_sum "Si O2"
_cell_formula_units_Z 16
_cell_length_a 9.268277
_cell_length_b 11.984360
_cell_length_c 8.193958
_cell_angle_alpha 127.392732
_cell_angle_beta 88.980469
_cell_angle_gamma 75.729729
_cell_volume 684.006058
_symmetry_space_group_name_H-M "P -1"
_symmetry_group_IT_number 2
_symmetry_cell_setting 'triclinic'
loop_
_space_group_symop_operation_xyz
x,y,z
-x,-y,-z
loop_
_atom_site_type_symbol
_atom_site_label
_atom_site_fract_x
_atom_site_fract_y
_atom_site_fract_z
Si Si1 0.629488 0.253700 0.363977
Si Si2 0.797235 0.318197 0.920960
Si Si3 0.094988 0.842715 0.934761
Si Si4 0.602691 0.951360 0.116946
Si Si5 0.221642 0.535989 0.264685
Si Si6 0.523120 0.733061 0.155859
Si Si7 0.316108 0.377717 0.611256
Si Si8 0.129592 0.312030 0.282334
O O1 0.725795 0.201270 0.150853
O O2 0.713745 0.350440 0.541980
O O3 0.452052 0.351283 0.451285
O O4 0.638365 0.096844 0.305180
O O5 0.910103 0.179175 0.890844
O O6 0.748795 0.455523 0.172340
O O7 0.864361 0.376317 0.814435
O O8 0.642778 0.285475 0.844556
O O9 0.024388 0.726265 0.752084
O O10 0.000000 0.000000 0.000000
O O11 0.523920 0.879556 0.190400
O O12 0.753097 0.825427 0.939488
O O13 0.500000 0.000000 0.000000
O O14 0.130514 0.455336 0.306321
O O15 0.368362 0.405910 0.074228
O O16 0.605178 0.715105 0.313958
O O17 0.193848 0.323611 0.470523
#
# Coordination Sequence:
#
# PCOD9014767 Si02
#       8
#     2   2   2   2   2   2   2   2
#     4  12  22  42  67 100 132 170 229 271 331 389
#     4  11  22  43  71 101 136 170 220 285 336 389
#     4  12  28  46  65  93 142 187 220 263 336 409
#     4  11  22  38  64  98 134 181 217 278 328 390
#     4  10  22  42  71 101 128 169 226 284 335 385
#     4  10  21  41  69 106 136 164 222 283 343 385
#     4  11  22  41  73 107 127 165 227 290 331 382
#     4  11  25  44  65  97 138 180 224 267 333 403
#
# _framework density 23.391605999999999
#
# number of rings (size 3 to 8) (size 9 to 14) (size 15 to 20)
#    0.000    1.000    5.000    2.250    1.750    4.000 
#    2.250    3.125    0.000    0.000    0.000    0.000 
#    0.000    0.000    0.000    0.000    0.000    0.000 
#
# Total GULP energy -89533.824766 kJ/mol
# GULP energy per Si atom -5595.864048 kJ/mol
# Density = 2.333837 g / cm^3
# Si number density = 23.391606 Si / 1000 Ang^3
#
#
#
# Elastic Constant Matrix: (Units=GPa)
#
#
# Indices 1 2 3 4 5 6 
#
# 1 87.2515 34.8345 28.2670 -5.9947 24.2349 8.8005
# 2 34.8345 181.4343 44.4442 -9.2473 29.8044 11.2162
# 3 28.2670 44.4442 71.3375 4.0975 14.9323 8.2726
# 4 -5.9947 -9.2473 4.0975 35.2394 -6.1327 11.9706
# 5 24.2349 29.8044 14.9323 -6.1327 32.5527 6.8146
# 6 8.8005 11.2162 8.2726 11.9706 6.8146 38.3253
#
#
#
# Elastic Compliance Matrix: (Units=1/GPa)
#
#
# Indices 1 2 3 4 5 6 
#
# 1 0.015663 -0.000365 -0.004081 0.002115 -0.008696 -0.001724
# 2 -0.000365 0.007298 -0.003499 0.001919 -0.004203 -0.001149
# 3 -0.004081 -0.003499 0.018735 -0.004266 -0.003114 -0.000196
# 4 0.002115 0.001919 -0.004266 0.035394 0.007929 -0.012591
# 5 -0.008696 -0.004203 -0.003114 0.007929 0.045355 -0.006642
# 6 -0.001724 -0.001149 -0.000196 -0.012591 -0.006642 0.031981
#
#
# Mechanical properties :
#
#
# Convention : Reuss Voigt Hill
#
# Bulk Modulus (GPa) = 38.75005 61.67941 50.21473
# Shear Modulus (GPa) = 27.94589 36.72199 32.33394
#
# Velocity S-wave (km/s) = 3.46019 3.96647 3.72195
# Velocity P-wave (km/s) = 5.70663 6.88495 6.32330
#
# Compressibility (1/GPa) = 0.02580642
#
# Stress axis : x y z
#
# Youngs Moduli (GPa) = 63.84342 137.02024 53.37677
#
# Poissons Ratio (x) = 0.04999 0.21781
# Poissons Ratio (y) = 0.02329 0.18679
# Poissons Ratio (z) = 0.26052 0.47950
#
# Static dielectric constant tensor:
#      x y z
#    x 1.880230 -0.001560 -0.055150 
#    y -0.001560 1.917550 -0.020620 
#    z -0.055150 -0.020620 1.924470 
# 
# From -- ./inp_files/182511.got.cif
#   From: 2010.05.17/outbox.cif.g08.bks.cpg/sg2_92_cif.got.tgz:182511.got - 2010.06.03 11:33:40.
