data_PCOD9014811
_publ_section_title
;
Structure prediction by ZEFSAII (Michael W. Deem and Ramdas Pophale) SiO2 
 PCOD9014811
Probable space group: P -1
;
_chemical_formula_sum "Si O2"
_cell_formula_units_Z 12
_cell_length_a 12.291827
_cell_length_b 21.311564
_cell_length_c 8.728194
_cell_angle_alpha 147.517874
_cell_angle_beta 140.056437
_cell_angle_gamma 27.359600
_cell_volume 562.889597
_symmetry_space_group_name_H-M "P -1"
_symmetry_group_IT_number 2
_symmetry_cell_setting 'triclinic'
loop_
_space_group_symop_operation_xyz
x,y,z
-x,-y,-z
loop_
_atom_site_type_symbol
_atom_site_label
_atom_site_fract_x
_atom_site_fract_y
_atom_site_fract_z
Si Si1 0.278536 0.149705 0.159742
Si Si2 0.542251 0.277820 0.291469
Si Si3 0.715239 0.621896 0.464072
Si Si4 0.116464 0.571355 0.237211
Si Si5 0.264794 0.058621 0.291185
Si Si6 0.181558 0.639400 0.114784
O O1 0.354999 0.247678 0.466461
O O2 0.244001 0.102774 0.182972
O O3 0.054633 0.237534 0.988541
O O4 0.500000 0.000000 0.000000
O O5 0.383554 0.306514 0.324212
O O6 0.365154 0.437378 0.319922
O O7 0.723857 0.281366 0.569496
O O8 0.679585 0.107917 0.999196
O O9 0.000000 0.500000 0.500000
O O10 0.649050 0.524217 0.142383
O O11 0.144303 0.580865 0.107115
O O12 0.957282 0.760958 0.506574
O O13 0.000000 0.500000 0.000000
O O14 0.500000 0.000000 0.500000
#
# Coordination Sequence:
#
# PCOD9014811 Si02
#       6
#     2   2   2   2   2   2
#     4  11  21  43  67  97 129 174 233 275 328 410
#     4  12  25  45  67 103 139 174 228 288 344 396
#     4  10  21  41  69  93 128 177 226 274 331 405
#     4  12  23  45  70  95 139 181 227 275 336 417
#     4  12  25  42  71  99 134 180 229 278 336 410
#     4  11  25  43  68 101 136 177 223 288 349 391
#
# _framework density 21.318569
#
# number of rings (size 3 to 8) (size 9 to 14) (size 15 to 20)
#    0.000    0.667    3.333    7.000    0.000    1.333 
#    3.000    0.000    0.000    0.000    0.000    0.000 
#    0.000    0.000    0.000    0.000    0.000    0.000 
#
# Total GULP energy -66853.190163 kJ/mol
# GULP energy per Si atom -5571.099180 kJ/mol
# Density = 2.127005 g / cm^3
# Si number density = 21.318569 Si / 1000 Ang^3
#
#
#
# Elastic Constant Matrix: (Units=GPa)
#
#
# Indices 1 2 3 4 5 6 
#
# 1 62.5792 21.5901 0.3124 -4.7515 -5.1059 10.5418
# 2 21.5901 128.4749 61.4122 2.5642 -3.2770 21.2988
# 3 0.3124 61.4122 165.9355 16.5356 7.9197 -14.8112
# 4 -4.7515 2.5642 16.5356 49.7537 -6.5634 -10.4078
# 5 -5.1059 -3.2770 7.9197 -6.5634 39.7339 -1.8776
# 6 10.5418 21.2988 -14.8112 -10.4078 -1.8776 24.6063
#
#
#
# Elastic Compliance Matrix: (Units=1/GPa)
#
#
# Indices 1 2 3 4 5 6 
#
# 1 0.017829 -0.002173 0.000121 0.000967 0.002005 -0.005122
# 2 -0.002173 0.013856 -0.006379 -0.001931 0.001077 -0.015637
# 3 0.000121 -0.006379 0.009524 -0.000860 -0.002046 0.010682
# 4 0.000967 -0.001931 -0.000860 0.023479 0.004536 0.011016
# 5 0.002005 0.001077 -0.002046 0.004536 0.026715 0.000934
# 6 -0.005122 -0.015637 0.010682 0.011016 0.000934 0.067529
#
#
# Mechanical properties :
#
#
# Convention : Reuss Voigt Hill
#
# Bulk Modulus (GPa) = 41.07165 58.17990 49.62577
# Shear Modulus (GPa) = 27.18726 41.06378 34.12552
#
# Velocity S-wave (km/s) = 3.57499 4.39361 4.00527
# Velocity P-wave (km/s) = 6.02895 7.28618 6.68717
#
# Compressibility (1/GPa) = 0.02434770
#
# Stress axis : x y z
#
# Youngs Moduli (GPa) = 56.08905 72.16987 105.00004
#
# Poissons Ratio (x) = 0.15684 -0.01275
# Poissons Ratio (y) = 0.12190 0.66977
# Poissons Ratio (z) = -0.00681 0.46035
#
# Static dielectric constant tensor:
#      x y z
#    x 1.756380 -0.093180 -0.044690 
#    y -0.093180 1.454480 -0.238970 
#    z -0.044690 -0.238970 1.631920 
# 
# From -- ./inp_files/164293.got.cif
#   From: 2010.05.17/outbox.cif.g08.bks.cpg/sg2_83_cif.got.tgz:164293.got - 2010.06.03 11:33:40.
