data_PCOD9014058
_publ_section_title
;
Structure prediction by ZEFSAII (Michael W. Deem and Ramdas Pophale) SiO2 
 PCOD9014058
Probable space group: P -1
;
_chemical_formula_sum "Si O2"
_cell_formula_units_Z 15
_cell_length_a 16.062291
_cell_length_b 9.000508
_cell_length_c 9.993113
_cell_angle_alpha 92.488162
_cell_angle_beta 56.433997
_cell_angle_gamma 134.271414
_cell_volume 705.751963
_symmetry_space_group_name_H-M "P -1"
_symmetry_group_IT_number 2
_symmetry_cell_setting 'triclinic'
loop_
_space_group_symop_operation_xyz
x,y,z
-x,-y,-z
loop_
_atom_site_type_symbol
_atom_site_label
_atom_site_fract_x
_atom_site_fract_y
_atom_site_fract_z
Si Si1 0.170063 0.771197 0.790530
Si Si2 0.500000 0.000000 0.000000
Si Si3 0.678239 0.772776 0.906101
Si Si4 0.946226 0.768336 0.009215
Si Si5 0.197996 0.529811 0.597259
Si Si6 0.567551 0.890782 0.195271
Si Si7 0.965911 0.283403 0.539817
Si Si8 0.216838 0.425788 0.131883
O O1 0.216992 0.730007 0.617803
O O2 0.111475 0.869466 0.824563
O O3 0.318589 0.931002 0.772000
O O4 0.000000 0.500000 0.000000
O O5 0.578650 0.017208 0.066086
O O6 0.379579 0.704558 0.063929
O O7 0.782230 0.748044 0.841479
O O8 0.500000 0.500000 0.000000
O O9 0.639574 0.821877 0.074352
O O10 0.774865 0.998505 0.725183
O O11 0.809145 0.590108 0.004664
O O12 0.869605 0.616736 0.210233
O O13 0.000000 0.000000 0.000000
O O14 0.371916 0.662075 0.404774
O O15 0.063917 0.354528 0.590726
O O16 0.054380 0.306697 0.340539
O O17 0.000000 0.500000 0.500000
#
# Coordination Sequence:
#
# PCOD9014058 Si02
#       8
#     2   1   2   2   2   2   2   2
#     4  10  21  41  66  95 134 182 227 282 349 413
#     4  12  22  42  68 102 142 180 238 288 360 414
#     4  12  25  44  68 105 147 187 230 302 369 416
#     4  11  24  46  70  99 139 190 235 290 360 433
#     4  11  23  44  67 102 137 183 237 291 357 422
#     4  12  24  43  67 101 140 185 235 298 353 427
#     4  12  25  45  73 106 139 189 244 297 355 434
#     4  12  25  45  72 105 145 189 241 296 361 433
#
# _framework density 21.253926
#
# number of rings (size 3 to 8) (size 9 to 14) (size 15 to 20)
#    0.000    0.533    2.667    7.200    0.000    1.067 
#    0.000    5.333    0.000    0.000    0.000    0.000 
#    0.000    0.000    0.000    0.000    0.000    0.000 
#
# Total GULP energy -83604.708001 kJ/mol
# GULP energy per Si atom -5573.647200 kJ/mol
# Density = 2.120555 g / cm^3
# Si number density = 21.253926 Si / 1000 Ang^3
#
#
#
# Elastic Constant Matrix: (Units=GPa)
#
#
# Indices 1 2 3 4 5 6 
#
# 1 74.5933 19.7673 26.0007 -7.3189 5.3132 -13.4441
# 2 19.7673 102.9778 34.6931 -7.1939 1.8105 -4.2008
# 3 26.0007 34.6931 79.5019 3.1709 -12.3111 -29.0790
# 4 -7.3189 -7.1939 3.1709 34.2886 1.6228 -2.6491
# 5 5.3132 1.8105 -12.3111 1.6228 35.3009 10.7623
# 6 -13.4441 -4.2008 -29.0790 -2.6491 10.7623 51.0768
#
#
#
# Elastic Compliance Matrix: (Units=1/GPa)
#
#
# Indices 1 2 3 4 5 6 
#
# 1 0.016712 -0.001027 -0.004973 0.004277 -0.005251 0.002811
# 2 -0.001027 0.012145 -0.006213 0.002831 -0.002088 -0.002222
# 3 -0.004973 -0.006213 0.021214 -0.003929 0.005964 0.008797
# 4 0.004277 0.002831 -0.003929 0.031352 -0.004091 0.001610
# 5 -0.005251 -0.002088 0.005964 -0.004091 0.033124 -0.005350
# 6 0.002811 -0.002222 0.008797 0.001610 -0.005350 0.026355
#
#
# Mechanical properties :
#
#
# Convention : Reuss Voigt Hill
#
# Bulk Modulus (GPa) = 38.99308 46.44390 42.71849
# Shear Modulus (GPa) = 28.75621 35.90738 32.33179
#
# Velocity S-wave (km/s) = 3.68228 4.11475 3.90451
# Velocity P-wave (km/s) = 6.03863 6.66890 6.36158
#
# Compressibility (1/GPa) = 0.02564557
#
# Stress axis : x y z
#
# Youngs Moduli (GPa) = 59.83764 82.33956 47.13932
#
# Poissons Ratio (x) = 0.08455 0.23442
# Poissons Ratio (y) = 0.06144 0.29287
# Poissons Ratio (z) = 0.29756 0.51156
#
# Static dielectric constant tensor:
#      x y z
#    x 1.794570 -0.035650 -0.012300 
#    y -0.035650 1.805260 -0.009480 
#    z -0.012300 -0.009480 1.762260 
# 
# From -- ./inp_files/295481.got.cif
#   From: 2010.05.17/outbox.cif.g08.bks.cpg/sg2_148_cif.got.tgz:295481.got - 2010.06.03 11:33:40.
