data_PCOD9014456
_publ_section_title
;
Structure prediction by ZEFSAII (Michael W. Deem and Ramdas Pophale) SiO2 
 PCOD9014456
Probable space group: P -1
;
_chemical_formula_sum "Si O2"
_cell_formula_units_Z 14
_cell_length_a 20.258833
_cell_length_b 14.070383
_cell_length_c 9.180003
_cell_angle_alpha 48.064683
_cell_angle_beta 30.290477
_cell_angle_gamma 29.967833
_cell_volume 625.386720
_symmetry_space_group_name_H-M "P -1"
_symmetry_group_IT_number 2
_symmetry_cell_setting 'triclinic'
loop_
_space_group_symop_operation_xyz
x,y,z
-x,-y,-z
loop_
_atom_site_type_symbol
_atom_site_label
_atom_site_fract_x
_atom_site_fract_y
_atom_site_fract_z
Si Si1 0.637192 0.628154 0.273864
Si Si2 0.516579 0.873238 0.981356
Si Si3 0.456839 0.561201 0.191844
Si Si4 0.951333 0.565277 0.359289
Si Si5 0.168798 0.569014 0.449744
Si Si6 0.512667 0.849607 0.562024
Si Si7 0.796198 0.011582 0.770865
O O1 0.563106 0.550268 0.560733
O O2 0.542364 0.807785 0.377391
O O3 0.569506 0.713952 0.151352
O O4 0.885733 0.453791 0.984605
O O5 0.707627 0.766717 0.621690
O O6 0.500000 0.000000 0.000000
O O7 0.331795 0.969495 0.129616
O O8 0.256923 0.800558 0.347402
O O9 0.500000 0.500000 0.000000
O O10 0.657102 0.496046 0.914507
O O11 0.980125 0.415050 0.367109
O O12 0.000000 0.500000 0.500000
O O13 0.295873 0.379966 0.507696
O O14 0.026410 0.786590 0.563045
O O15 0.500000 0.000000 0.500000
O O16 0.310081 0.936950 0.924452
#
# Coordination Sequence:
#
# PCOD9014456 Si02
#       7
#     2   2   2   2   2   2   2
#     4  11  24  42  71 100 138 180 235 281 345 409
#     4  11  22  44  68 101 139 176 230 294 344 408
#     4  11  23  49  64 101 144 184 229 283 339 413
#     4  10  21  41  67  99 132 176 225 286 341 398
#     4  11  23  44  72  97 140 180 227 284 349 401
#     4  11  22  42  66 103 135 174 232 284 343 401
#     4  11  23  43  69  95 142 186 221 288 344 402
#
# _framework density 22.386150000000001
#
# number of rings (size 3 to 8) (size 9 to 14) (size 15 to 20)
#    0.000    1.143    5.714    3.429    0.000    3.429 
#    2.571    0.714    0.000    0.000    0.000    0.000 
#    0.000    0.000    0.000    0.000    0.000    0.000 
#
# Total GULP energy -78159.677510 kJ/mol
# GULP energy per Si atom -5582.834108 kJ/mol
# Density = 2.233520 g / cm^3
# Si number density = 22.386150 Si / 1000 Ang^3
#
#
#
# Elastic Constant Matrix: (Units=GPa)
#
#
# Indices 1 2 3 4 5 6 
#
# 1 76.6743 17.4039 24.2993 4.4050 7.0398 -1.9332
# 2 17.4039 146.6542 51.0676 21.6629 4.7571 7.0427
# 3 24.2993 51.0676 99.9448 -8.1588 9.5745 -19.4575
# 4 4.4050 21.6629 -8.1588 45.1258 9.2365 5.2411
# 5 7.0398 4.7571 9.5745 9.2365 33.9904 1.2225
# 6 -1.9332 7.0427 -19.4575 5.2411 1.2225 24.1480
#
#
#
# Elastic Compliance Matrix: (Units=1/GPa)
#
#
# Indices 1 2 3 4 5 6 
#
# 1 0.014432 -0.000054 -0.003753 -0.001601 -0.001438 -0.001433
# 2 -0.000054 0.010795 -0.007882 -0.006192 0.002702 -0.008297
# 3 -0.003753 -0.007882 0.019269 0.006973 -0.006029 0.016316
# 4 -0.001601 -0.006192 0.006973 0.028092 -0.008458 0.001627
# 5 -0.001438 0.002702 -0.006029 -0.008458 0.033539 -0.005623
# 6 -0.001433 -0.008297 0.016316 0.001627 -0.005623 0.056795
#
#
# Mechanical properties :
#
#
# Convention : Reuss Voigt Hill
#
# Bulk Modulus (GPa) = 47.35481 56.53497 51.94489
# Shear Modulus (GPa) = 25.86129 36.01967 30.94048
#
# Velocity S-wave (km/s) = 3.40256 4.01561 3.72173
# Velocity P-wave (km/s) = 6.05278 6.84174 6.45932
#
# Compressibility (1/GPa) = 0.02111718
#
# Stress axis : x y z
#
# Youngs Moduli (GPa) = 69.29209 92.63258 51.89718
#
# Poissons Ratio (x) = 0.00499 0.19478
# Poissons Ratio (y) = 0.00373 0.40907
# Poissons Ratio (z) = 0.26006 0.73017
#
# Static dielectric constant tensor:
#      x y z
#    x 1.901790 0.010270 -0.030920 
#    y 0.010270 1.902800 0.012160 
#    z -0.030920 0.012160 1.822840 
# 
# From -- ./inp_files/347487.got.cif
#   From: 2010.05.17/outbox.cif.g08.bks.cpg/sg2_174_cif.got.tgz:347487.got - 2010.06.03 11:33:40.
