data_PCOD9015391
_publ_section_title
;
Structure prediction by ZEFSAII (Michael W. Deem and Ramdas Pophale) SiO2 
 PCOD9015391
Probable space group: P -1
;
_chemical_formula_sum "Si O2"
_cell_formula_units_Z 16
_cell_length_a 9.331399
_cell_length_b 17.959358
_cell_length_c 13.786716
_cell_angle_alpha 25.556370
_cell_angle_beta 94.760050
_cell_angle_gamma 111.250282
_cell_volume 738.342878
_symmetry_space_group_name_H-M "P -1"
_symmetry_group_IT_number 2
_symmetry_cell_setting 'triclinic'
loop_
_space_group_symop_operation_xyz
x,y,z
-x,-y,-z
loop_
_atom_site_type_symbol
_atom_site_label
_atom_site_fract_x
_atom_site_fract_y
_atom_site_fract_z
Si Si1 0.442934 0.646600 0.747260
Si Si2 0.178245 0.718669 0.188997
Si Si3 0.004927 0.105607 0.111134
Si Si4 0.423523 0.367339 0.893246
Si Si5 0.801306 0.075125 0.864889
Si Si6 0.802151 0.745206 0.350578
Si Si7 0.168869 0.186074 0.365013
Si Si8 0.444557 0.028901 0.207746
O O1 0.446668 0.500492 0.835147
O O2 0.639394 0.780444 0.662552
O O3 0.440145 0.832868 0.481314
O O4 0.257297 0.443588 0.039869
O O5 0.280542 0.902332 0.069128
O O6 0.000000 0.500000 0.500000
O O7 0.355015 0.778931 0.067046
O O8 0.079159 0.769324 0.046365
O O9 0.925733 0.959916 0.180101
O O10 0.920145 0.919170 0.411103
O O11 0.232822 0.287317 0.924747
O O12 0.611621 0.544720 0.630963
O O13 0.408195 0.145914 0.150600
O O14 0.037401 0.267631 0.651858
O O15 0.720298 0.084218 0.750556
O O16 0.747006 0.829568 0.161752
O O17 0.000000 0.000000 0.500000
#
# Coordination Sequence:
#
# PCOD9015391 Si02
#       8
#     2   2   2   2   2   2   2   2
#     4  11  25  45  72 102 138 176 222 293 343 404
#     4  11  24  39  62  99 144 182 230 282 333 405
#     4  11  22  43  67 100 135 183 229 275 348 409
#     4  12  24  42  74  95 140 184 222 276 349 400
#     4  10  22  39  63  94 144 181 232 280 328 397
#     4  10  21  42  61  98 140 183 229 282 323 405
#     4  11  22  45  76  97 132 183 225 275 358 417
#     4  12  25  44  68 108 137 179 237 280 338 408
#
# _framework density 21.670148999999999
#
# number of rings (size 3 to 8) (size 9 to 14) (size 15 to 20)
#    0.000    1.000    5.000    1.875    3.500    0.500 
#    2.250    3.125    0.000    0.000    0.000    0.000 
#    0.000    0.000    0.000    0.000    0.000    0.000 
#
# Total GULP energy -89194.458113 kJ/mol
# GULP energy per Si atom -5574.653632 kJ/mol
# Density = 2.162083 g / cm^3
# Si number density = 21.670149 Si / 1000 Ang^3
#
#
#
# Elastic Constant Matrix: (Units=GPa)
#
#
# Indices 1 2 3 4 5 6 
#
# 1 77.5563 27.7134 9.6033 -6.8401 6.7804 17.4595
# 2 27.7134 68.9531 34.2462 2.8377 14.1471 20.8180
# 3 9.6033 34.2462 80.8148 17.6314 4.2011 15.8476
# 4 -6.8401 2.8377 17.6314 30.8694 6.1389 -3.8655
# 5 6.7804 14.1471 4.2011 6.1389 32.3447 -0.3098
# 6 17.4595 20.8180 15.8476 -3.8655 -0.3098 37.9216
#
#
#
# Elastic Compliance Matrix: (Units=1/GPa)
#
#
# Indices 1 2 3 4 5 6 
#
# 1 0.016162 -0.005115 0.000429 0.003634 -0.001939 -0.004458
# 2 -0.005115 0.024842 -0.008452 0.002290 -0.009203 -0.007593
# 3 0.000429 -0.008452 0.019110 -0.011267 0.003218 -0.004666
# 4 0.003634 0.002290 -0.011267 0.041799 -0.008176 0.005973
# 5 -0.001939 -0.009203 0.003218 -0.008176 0.036521 0.004065
# 6 -0.004458 -0.007593 -0.004666 0.005973 0.004065 0.035183
#
#
# Mechanical properties :
#
#
# Convention : Reuss Voigt Hill
#
# Bulk Modulus (GPa) = 29.55055 41.16112 35.35583
# Shear Modulus (GPa) = 23.67740 30.61124 27.14432
#
# Velocity S-wave (km/s) = 3.30908 3.76253 3.54307
# Velocity P-wave (km/s) = 5.31659 6.15720 5.75227
#
# Compressibility (1/GPa) = 0.03384032
#
# Stress axis : x y z
#
# Youngs Moduli (GPa) = 61.87372 40.25416 52.32744
#
# Poissons Ratio (x) = 0.20589 -0.02245
# Poissons Ratio (y) = 0.31646 0.44225
# Poissons Ratio (z) = -0.02655 0.34021
#
# Static dielectric constant tensor:
#      x y z
#    x 1.848820 -0.046990 0.058900 
#    y -0.046990 1.825360 -0.041280 
#    z 0.058900 -0.041280 1.939520 
# 
# From -- ./inp_files/314789.got.cif
#   From: 2010.05.17/outbox.cif.g08.bks.cpg/sg2_158_cif.got.tgz:314789.got - 2010.06.03 11:33:40.
