data_PCOD9015366
_publ_section_title
;
Structure prediction by ZEFSAII (Michael W. Deem and Ramdas Pophale) SiO2 
 PCOD9015366
Probable space group: P -1
;
_chemical_formula_sum "Si O2"
_cell_formula_units_Z 14
_cell_length_a 6.636319
_cell_length_b 16.246722
_cell_length_c 16.784808
_cell_angle_alpha 23.843629
_cell_angle_beta 60.031036
_cell_angle_gamma 58.404768
_cell_volume 622.035140
_symmetry_space_group_name_H-M "P -1"
_symmetry_group_IT_number 2
_symmetry_cell_setting 'triclinic'
loop_
_space_group_symop_operation_xyz
x,y,z
-x,-y,-z
loop_
_atom_site_type_symbol
_atom_site_label
_atom_site_fract_x
_atom_site_fract_y
_atom_site_fract_z
Si Si1 0.087935 0.205841 0.777487
Si Si2 0.414489 0.788894 0.405724
Si Si3 0.416560 0.019567 0.409208
Si Si4 0.498033 0.443662 0.250340
Si Si5 0.176938 0.225738 0.145235
Si Si6 0.216405 0.567528 0.508973
Si Si7 0.695583 0.351580 0.037816
O O1 0.357320 0.165864 0.726938
O O2 0.100620 0.362436 0.710365
O O3 0.912993 0.309016 0.650262
O O4 0.000000 0.000000 0.000000
O O5 0.522601 0.603852 0.610185
O O6 0.217130 0.708222 0.462239
O O7 0.294565 0.004092 0.280039
O O8 0.405907 0.787968 0.593653
O O9 0.500000 0.000000 0.500000
O O10 0.185732 0.175508 0.282946
O O11 0.614520 0.132755 0.229691
O O12 0.675627 0.598811 0.061891
O O13 0.285250 0.534831 0.150753
O O14 0.923907 0.300082 0.092069
O O15 0.500000 0.500000 0.500000
O O16 0.500000 0.500000 0.000000
#
# Coordination Sequence:
#
# PCOD9015366 Si02
#       7
#     2   2   2   2   2   2   2
#     4  10  22  41  68  99 126 166 213 260 312 385
#     4  10  23  43  61  92 136 167 210 265 319 388
#     4  10  21  42  61  91 122 161 216 269 322 383
#     4  10  23  42  61  91 127 169 215 263 329 376
#     4  10  25  40  63  92 127 173 216 263 333 372
#     4   9  21  40  64  94 126 164 209 251 319 380
#     4  11  23  43  63  93 125 166 225 274 315 381
#
# _framework density 22.506767
#
# number of rings (size 3 to 8) (size 9 to 14) (size 15 to 20)
#    0.000    2.000    1.429    0.000    0.000   16.571 
#    0.000    0.000    0.000    0.000    0.000    0.000 
#    0.000    0.000    0.000    0.000    0.000    0.000 
#
# Total GULP energy -78081.066322 kJ/mol
# GULP energy per Si atom -5577.219023 kJ/mol
# Density = 2.245554 g / cm^3
# Si number density = 22.506767 Si / 1000 Ang^3
#
#
#
# Elastic Constant Matrix: (Units=GPa)
#
#
# Indices 1 2 3 4 5 6 
#
# 1 174.9769 42.3159 74.7369 -5.6779 17.7082 22.5921
# 2 42.3159 67.3287 41.3614 -9.1194 -2.1249 18.1803
# 3 74.7369 41.3614 191.8046 -4.9787 -7.0836 20.6062
# 4 -5.6779 -9.1194 -4.9787 29.9030 9.5254 -2.3464
# 5 17.7082 -2.1249 -7.0836 9.5254 40.6844 -10.8188
# 6 22.5921 18.1803 20.6062 -2.3464 -10.8188 37.0488
#
#
#
# Elastic Compliance Matrix: (Units=1/GPa)
#
#
# Indices 1 2 3 4 5 6 
#
# 1 0.008630 -0.002686 -0.002505 0.001954 -0.005893 -0.004148
# 2 -0.002686 0.020717 -0.002565 0.005242 -0.001326 -0.007157
# 3 -0.002505 -0.002565 0.006848 -0.000864 0.002238 -0.000424
# 4 0.001954 0.005242 -0.000864 0.038387 -0.010778 -0.004000
# 5 -0.005893 -0.001326 0.002238 -0.010778 0.033181 0.012006
# 6 -0.004148 -0.007157 -0.000424 -0.004000 0.012006 0.036522
#
#
# Mechanical properties :
#
#
# Convention : Reuss Voigt Hill
#
# Bulk Modulus (GPa) = 48.34694 83.43763 65.89228
# Shear Modulus (GPa) = 29.99560 39.90696 34.95128
#
# Velocity S-wave (km/s) = 3.65463 4.21540 3.94499
# Velocity P-wave (km/s) = 6.27185 7.80035 7.07749
#
# Compressibility (1/GPa) = 0.02068383
#
# Stress axis : x y z
#
# Youngs Moduli (GPa) = 115.87578 48.26940 146.01812
#
# Poissons Ratio (x) = 0.12967 0.36572
# Poissons Ratio (y) = 0.31129 0.37450
# Poissons Ratio (z) = 0.29022 0.12380
#
# Static dielectric constant tensor:
#      x y z
#    x 1.885120 0.042210 0.010070 
#    y 0.042210 1.963110 0.018680 
#    z 0.010070 0.018680 1.816310 
# 
# From -- ./inp_files/105985.got.cif
#   From: 2010.05.17/outbox.cif.g08.bks.cpg/sg2_53_cif.got.tgz:105985.got - 2010.06.03 11:33:40.
