data_PCOD9015066
_publ_section_title
;
Structure prediction by ZEFSAII (Michael W. Deem and Ramdas Pophale) SiO2 
 PCOD9015066
Probable space group: P -1
;
_chemical_formula_sum "Si O2"
_cell_formula_units_Z 16
_cell_length_a 12.501073
_cell_length_b 8.876950
_cell_length_c 12.296923
_cell_angle_alpha 118.082383
_cell_angle_beta 85.526558
_cell_angle_gamma 47.557099
_cell_volume 705.560884
_symmetry_space_group_name_H-M "P -1"
_symmetry_group_IT_number 2
_symmetry_cell_setting 'triclinic'
loop_
_space_group_symop_operation_xyz
x,y,z
-x,-y,-z
loop_
_atom_site_type_symbol
_atom_site_label
_atom_site_fract_x
_atom_site_fract_y
_atom_site_fract_z
Si Si1 0.364964 0.642719 0.457338
Si Si2 0.788401 0.060751 0.850905
Si Si3 0.790529 0.751177 0.902201
Si Si4 0.990460 0.098586 0.914698
Si Si5 0.853893 0.836760 0.221350
Si Si6 0.633344 0.779968 0.202628
Si Si7 0.519704 0.351352 0.776552
Si Si8 0.412537 0.240403 0.212655
O O1 0.500000 0.500000 0.500000
O O2 0.444949 0.606401 0.325621
O O3 0.338457 0.477482 0.380198
O O4 0.187666 0.981189 0.614892
O O5 0.693245 0.140296 0.771591
O O6 0.952855 0.984958 0.801933
O O7 0.846594 0.818412 0.831185
O O8 0.639112 0.350281 0.038700
O O9 0.736901 0.638444 0.815913
O O10 0.954486 0.505512 0.888843
O O11 0.598014 0.058049 0.074198
O O12 0.141982 0.036898 0.838772
O O13 0.813749 0.446192 0.042388
O O14 0.000000 0.000000 0.000000
O O15 0.700367 0.886209 0.254741
O O16 0.538168 0.769636 0.287357
O O17 0.488697 0.980776 0.185219
#
# Coordination Sequence:
#
# PCOD9015066 Si02
#       8
#     2   2   2   2   2   2   2   2
#     4  12  27  45  68 100 147 191 221 281 359 425
#     4  10  21  41  71 100 134 172 237 298 334 396
#     4  11  23  43  72 103 130 180 242 289 340 399
#     4  11  25  39  67 105 139 178 229 296 347 394
#     4  12  27  43  66 105 141 181 228 285 355 412
#     4  11  22  41  70  97 134 181 238 287 324 411
#     4  10  23  42  69 104 132 181 239 283 340 408
#     4  11  23  43  71  99 137 181 235 283 336 421
#
# _framework density 22.676995000000002
#
# number of rings (size 3 to 8) (size 9 to 14) (size 15 to 20)
#    0.000    1.000    5.000    1.125    7.000    1.000 
#    0.000    0.625    0.000    0.000    0.000    0.000 
#    0.000    0.000    0.000    0.000    0.000    0.000 
#
# Total GULP energy -89296.273692 kJ/mol
# GULP energy per Si atom -5581.017106 kJ/mol
# Density = 2.262538 g / cm^3
# Si number density = 22.676995 Si / 1000 Ang^3
#
#
#
# Elastic Constant Matrix: (Units=GPa)
#
#
# Indices 1 2 3 4 5 6 
#
# 1 130.6088 53.4179 30.4682 -2.2554 22.0060 5.5860
# 2 53.4179 108.5055 15.4941 -21.5725 -3.0369 10.3247
# 3 30.4682 15.4941 62.5892 -7.9633 17.4994 11.3389
# 4 -2.2554 -21.5725 -7.9633 26.2359 2.3186 0.9210
# 5 22.0060 -3.0369 17.4994 2.3186 26.0206 -4.6874
# 6 5.5860 10.3247 11.3389 0.9210 -4.6874 37.6536
#
#
#
# Elastic Compliance Matrix: (Units=1/GPa)
#
#
# Indices 1 2 3 4 5 6 
#
# 1 0.012609 -0.007021 -0.002198 -0.004488 -0.009673 -0.000378
# 2 -0.007021 0.015428 -0.000260 0.011527 0.006418 -0.002594
# 3 -0.002198 -0.000260 0.024829 0.009002 -0.017376 -0.009463
# 4 -0.004488 0.011527 0.009002 0.050793 -0.006752 -0.007289
# 5 -0.009673 0.006418 -0.017376 -0.006752 0.061951 0.012785
# 6 -0.000378 -0.002594 -0.009463 -0.007289 0.012785 0.031945
#
#
# Mechanical properties :
#
#
# Convention : Reuss Voigt Hill
#
# Bulk Modulus (GPa) = 29.49032 55.60710 42.54871
# Shear Modulus (GPa) = 21.94767 31.47026 26.70896
#
# Velocity S-wave (km/s) = 3.11439 3.72931 3.43563
# Velocity P-wave (km/s) = 5.09561 6.56645 5.87722
#
# Compressibility (1/GPa) = 0.03390944
#
# Stress axis : x y z
#
# Youngs Moduli (GPa) = 79.30822 64.81891 40.27477
#
# Poissons Ratio (x) = 0.45507 0.08853
# Poissons Ratio (y) = 0.55679 0.01045
# Poissons Ratio (z) = 0.17433 0.01683
#
# Static dielectric constant tensor:
#      x y z
#    x 1.918790 0.003500 -0.005420 
#    y 0.003500 1.865990 0.000290 
#    z -0.005420 0.000290 1.845680 
# 
# From -- ./inp_files/419744.got.cif
#   From: 2010.05.17/outbox.cif.g08.bks.cpg/sg2_210_cif.got.tgz:419744.got - 2010.06.03 11:33:40.
