data_PCOD9015412
_publ_section_title
;
Structure prediction by ZEFSAII (Michael W. Deem and Ramdas Pophale) SiO2 
 PCOD9015412
Probable space group: P -1
;
_chemical_formula_sum "Si O2"
_cell_formula_units_Z 12
_cell_length_a 19.721001
_cell_length_b 5.173198
_cell_length_c 5.352262
_cell_angle_alpha 87.601070
_cell_angle_beta 66.567405
_cell_angle_gamma 93.510269
_cell_volume 498.760010
_symmetry_space_group_name_H-M "P -1"
_symmetry_group_IT_number 2
_symmetry_cell_setting 'triclinic'
loop_
_space_group_symop_operation_xyz
x,y,z
-x,-y,-z
loop_
_atom_site_type_symbol
_atom_site_label
_atom_site_fract_x
_atom_site_fract_y
_atom_site_fract_z
Si Si1 0.587367 0.589782 0.875035
Si Si2 0.552832 0.768257 0.419223
Si Si3 0.283750 0.731776 0.279925
Si Si4 0.173224 0.091292 0.321608
Si Si5 0.210191 0.484052 0.887101
Si Si6 0.913072 0.436725 0.625162
O O1 0.601801 0.752789 0.595022
O O2 0.631572 0.334784 0.830838
O O3 0.500000 0.500000 0.000000
O O4 0.599794 0.760543 0.098605
O O5 0.500000 0.500000 0.500000
O O6 0.500000 0.000000 0.500000
O O7 0.248799 0.567928 0.573020
O O8 0.247867 0.005661 0.341984
O O9 0.255035 0.620122 0.054637
O O10 0.128108 0.333245 0.458269
O O11 0.114941 0.841568 0.430320
O O12 0.199392 0.182469 0.998753
O O13 0.126442 0.566612 0.043180
O O14 0.000000 0.500000 0.500000
#
# Coordination Sequence:
#
# PCOD9015412 Si02
#       6
#     2   2   2   2   2   2
#     4  10  22  41  67  97 125 173 220 283 330 395
#     4  10  21  42  62  90 125 157 206 268 333 388
#     4  11  21  46  63  97 135 176 228 272 340 404
#     4   9  21  40  64  97 136 177 218 271 334 389
#     4   9  23  38  67  94 134 179 219 269 337 394
#     4   9  18  40  69  99 134 175 224 270 326 392
#
# _framework density 24.059666
#
# number of rings (size 3 to 8) (size 9 to 14) (size 15 to 20)
#    1.000    1.333    0.000    2.000    0.000    2.667 
#   18.000    4.167    0.000    0.000    0.000    0.000 
#    0.000    0.000    0.000    0.000    0.000    0.000 
#
# Total GULP energy -66906.687553 kJ/mol
# GULP energy per Si atom -5575.557296 kJ/mol
# Density = 2.400491 g / cm^3
# Si number density = 24.059666 Si / 1000 Ang^3
#
#
#
# Elastic Constant Matrix: (Units=GPa)
#
#
# Indices 1 2 3 4 5 6 
#
# 1 106.8818 30.8440 50.2329 6.6956 -18.7802 -30.3950
# 2 30.8440 153.7832 23.5494 -5.2458 5.2134 -24.4275
# 3 50.2329 23.5494 127.7517 2.0063 23.7133 -8.9735
# 4 6.6956 -5.2458 2.0063 25.2327 -3.8589 -0.3288
# 5 -18.7802 5.2134 23.7133 -3.8589 49.8940 3.8360
# 6 -30.3950 -24.4275 -8.9735 -0.3288 3.8360 39.6229
#
#
#
# Elastic Compliance Matrix: (Units=1/GPa)
#
#
# Indices 1 2 3 4 5 6 
#
# 1 0.018408 -0.001210 -0.008056 -0.002851 0.009851 0.010573
# 2 -0.001210 0.007508 -0.000457 0.001788 -0.001171 0.003725
# 3 -0.008056 -0.000457 0.012512 -0.000325 -0.008742 -0.002784
# 4 -0.002851 0.001788 -0.000325 0.041101 0.002152 -0.001026
# 5 0.009851 -0.001171 -0.008742 0.002152 0.028028 0.002159
# 6 0.010573 0.003725 -0.002784 -0.001026 0.002159 0.034797
#
#
# Mechanical properties :
#
#
# Convention : Reuss Voigt Hill
#
# Bulk Modulus (GPa) = 52.68536 66.40772 59.54654
# Shear Modulus (GPa) = 29.73949 41.86928 35.80438
#
# Velocity S-wave (km/s) = 3.51960 4.17613 3.86184
# Velocity P-wave (km/s) = 6.20178 7.13545 6.68493
#
# Compressibility (1/GPa) = 0.01898060
#
# Stress axis : x y z
#
# Youngs Moduli (GPa) = 54.32510 133.19588 79.92393
#
# Poissons Ratio (x) = 0.16118 0.64387
# Poissons Ratio (y) = 0.06574 0.03655
# Poissons Ratio (z) = 0.43764 0.06090
#
# Static dielectric constant tensor:
#      x y z
#    x 1.938620 0.022060 0.089360 
#    y 0.022060 1.968710 0.026990 
#    z 0.089360 0.026990 2.029750 
# 
# From -- ./inp_files/14710.got.cif
#   From: 2010.05.17/outbox.cif.g08.bks.cpg/sg2_8_cif.got.tgz:14710.got - 2010.06.03 11:33:40.
