data_PCOD9015118
_publ_section_title
;
Structure prediction by ZEFSAII (Michael W. Deem and Ramdas Pophale) SiO2 
 PCOD9015118
Probable space group: P -1
;
_chemical_formula_sum "Si O2"
_cell_formula_units_Z 14
_cell_length_a 7.789537
_cell_length_b 14.888051
_cell_length_c 9.813236
_cell_angle_alpha 125.061018
_cell_angle_beta 131.819628
_cell_angle_gamma 90.391769
_cell_volume 533.936527
_symmetry_space_group_name_H-M "P -1"
_symmetry_group_IT_number 2
_symmetry_cell_setting 'triclinic'
loop_
_space_group_symop_operation_xyz
x,y,z
-x,-y,-z
loop_
_atom_site_type_symbol
_atom_site_label
_atom_site_fract_x
_atom_site_fract_y
_atom_site_fract_z
Si Si1 0.058201 0.721762 0.756674
Si Si2 0.496544 0.827067 0.738358
Si Si3 0.930624 0.308778 0.822982
Si Si4 0.917100 0.098783 0.830188
Si Si5 0.309916 0.115525 0.685642
Si Si6 0.243442 0.514085 0.396201
Si Si7 0.098559 0.274741 0.613776
O O1 0.054537 0.826408 0.947478
O O2 0.412305 0.812467 0.004410
O O3 0.870724 0.678225 0.482716
O O4 0.933267 0.579347 0.647301
O O5 0.409830 0.791711 0.500863
O O6 0.373332 0.674782 0.603172
O O7 0.266259 0.853222 0.680277
O O8 0.841407 0.926654 0.043713
O O9 0.991027 0.215122 0.857407
O O10 0.127701 0.364076 0.837002
O O11 0.024313 0.432271 0.080791
O O12 0.652135 0.955472 0.484289
O O13 0.291937 0.229834 0.712986
O O14 0.000000 0.000000 0.500000
O O15 0.500000 0.500000 0.500000
#
# Coordination Sequence:
#
# PCOD9015118 Si02
#       7
#     2   2   2   2   2   2   2
#     4  11  26  42  65 104 132 167 230 272 326 388
#     4  10  21  41  71  95 130 174 221 261 332 393
#     4   9  21  39  66 102 124 177 219 259 337 396
#     4  11  22  43  70  96 133 173 224 271 326 389
#     4  12  24  45  70  93 140 179 214 272 331 393
#     4  11  21  44  73  92 135 174 216 277 332 385
#     4  10  25  41  64 102 132 173 221 268 329 394
#
# _framework density 26.220347
#
# number of rings (size 3 to 8) (size 9 to 14) (size 15 to 20)
#    0.857    0.571    4.286    1.714    0.000    6.857 
#    2.571    1.429    0.000    0.000    0.000    0.000 
#    0.000    0.000    0.000    0.000    0.000    0.000 
#
# Total GULP energy -78224.984663 kJ/mol
# GULP energy per Si atom -5587.498905 kJ/mol
# Density = 2.616067 g / cm^3
# Si number density = 26.220347 Si / 1000 Ang^3
#
#
#
# Elastic Constant Matrix: (Units=GPa)
#
#
# Indices 1 2 3 4 5 6 
#
# 1 86.5086 30.6157 3.5985 -15.3275 -20.3135 -5.9014
# 2 30.6157 68.0513 22.2486 -26.2815 -16.8976 7.9672
# 3 3.5985 22.2486 67.8525 -32.0646 -9.4565 10.4105
# 4 -15.3275 -26.2815 -32.0646 41.4592 7.7080 -3.9485
# 5 -20.3135 -16.8976 -9.4565 7.7080 54.2435 -9.9730
# 6 -5.9014 7.9672 10.4105 -3.9485 -9.9730 43.1543
#
#
#
# Elastic Compliance Matrix: (Units=1/GPa)
#
#
# Indices 1 2 3 4 5 6 
#
# 1 0.015529 -0.005741 0.002947 0.003879 0.004710 0.003916
# 2 -0.005741 0.022794 -0.001375 0.010475 0.002654 -0.003090
# 3 0.002947 -0.001375 0.024534 0.018569 0.001732 -0.003162
# 4 0.003879 0.010475 0.018569 0.046213 0.001130 -0.001394
# 5 0.004710 0.002654 0.001732 0.001130 0.022076 0.004941
# 6 0.003916 -0.003090 -0.003162 -0.001394 0.004941 0.026056
#
#
# Mechanical properties :
#
#
# Convention : Reuss Voigt Hill
#
# Bulk Modulus (GPa) = 18.34222 37.25976 27.80099
# Shear Modulus (GPa) = 27.21637 38.83470 33.02554
#
# Velocity S-wave (km/s) = 3.22528 3.85267 3.55285
# Velocity P-wave (km/s) = 4.56952 5.83368 5.23986
#
# Compressibility (1/GPa) = 0.05451902
#
# Stress axis : x y z
#
# Youngs Moduli (GPa) = 64.39602 43.87180 40.75914
#
# Poissons Ratio (x) = 0.25187 -0.12013
# Poissons Ratio (y) = 0.36970 0.05605
# Poissons Ratio (z) = -0.18980 0.06034
#
# Static dielectric constant tensor:
#      x y z
#    x 2.181650 0.066240 0.038560 
#    y 0.066240 2.036620 0.031550 
#    z 0.038560 0.031550 2.086010 
# 
# From -- ./inp_files/208029.got.cif
#   From: 2010.05.17/outbox.cif.g08.bks.cpg/sg2_105_cif.got.tgz:208029.got - 2010.06.03 11:33:40.
