data_PCOD9015669
_publ_section_title
;
Structure prediction by ZEFSAII (Michael W. Deem and Ramdas Pophale) SiO2 
 PCOD9015669
Probable space group: P -1
;
_chemical_formula_sum "Si O2"
_cell_formula_units_Z 15
_cell_length_a 7.923393
_cell_length_b 12.670045
_cell_length_c 16.858363
_cell_angle_alpha 146.359134
_cell_angle_beta 54.058897
_cell_angle_gamma 104.594581
_cell_volume 644.788972
_symmetry_space_group_name_H-M "P -1"
_symmetry_group_IT_number 2
_symmetry_cell_setting 'triclinic'
loop_
_space_group_symop_operation_xyz
x,y,z
-x,-y,-z
loop_
_atom_site_type_symbol
_atom_site_label
_atom_site_fract_x
_atom_site_fract_y
_atom_site_fract_z
Si Si1 0.982914 0.409102 0.214660
Si Si2 0.153192 0.030465 0.263047
Si Si3 0.945244 0.031653 0.149060
Si Si4 0.620024 0.945927 0.020353
Si Si5 0.816727 0.119812 0.553895
Si Si6 0.675480 0.473538 0.065772
Si Si7 0.500000 0.500000 0.500000
Si Si8 0.141344 0.325172 0.737867
O O1 0.735744 0.475481 0.370289
O O2 0.919843 0.605349 0.293244
O O3 0.206983 0.308633 0.154052
O O4 0.066870 0.189016 0.997926
O O5 0.374917 0.075724 0.222680
O O6 0.282964 0.767294 0.081231
O O7 0.021789 0.062195 0.234942
O O8 0.953679 0.149714 0.460736
O O9 0.695309 0.258896 0.339742
O O10 0.178377 0.985173 0.000779
O O11 0.500000 0.000000 0.000000
O O12 0.586715 0.353217 0.788427
O O13 0.740455 0.937893 0.442814
O O14 0.000000 0.000000 0.500000
O O15 0.702654 0.579544 0.206526
O O16 0.885753 0.443180 0.929824
#
# Coordination Sequence:
#
# PCOD9015669 Si02
#       8
#     2   2   2   2   2   2   1   2
#     4  11  22  40  66  92 123 168 211 256 312 370
#     4  10  22  41  66  90 128 169 207 252 318 372
#     4  10  21  42  64  93 123 164 213 261 308 366
#     4   9  20  38  60  87 124 162 202 250 308 372
#     4  11  26  41  61  98 131 160 208 260 315 381
#     4  10  22  43  64  92 125 163 209 265 304 373
#     4  10  22  36  62  94 128 148 206 266 304 362
#     4  10  23  41  67  91 122 169 209 255 316 371
#
# _framework density 23.263425999999999
#
# number of rings (size 3 to 8) (size 9 to 14) (size 15 to 20)
#    0.000    1.867    1.333    2.000    5.600    2.133 
#    2.400    0.000    0.000   13.600    0.000    0.000 
#    0.000    0.000    0.000    0.000    0.000    0.000 
#
# Total GULP energy -83555.170854 kJ/mol
# GULP energy per Si atom -5570.344724 kJ/mol
# Density = 2.321048 g / cm^3
# Si number density = 23.263426 Si / 1000 Ang^3
#
#
#
# Elastic Constant Matrix: (Units=GPa)
#
#
# Indices 1 2 3 4 5 6 
#
# 1 84.4814 17.6340 35.1687 -0.5459 -21.1868 -11.5666
# 2 17.6340 103.8921 23.8099 -6.5798 -13.7418 -15.7672
# 3 35.1687 23.8099 101.1352 18.9228 -30.6882 -6.9196
# 4 -0.5459 -6.5798 18.9228 20.8027 -8.0163 -1.5045
# 5 -21.1868 -13.7418 -30.6882 -8.0163 40.4792 6.8117
# 6 -11.5666 -15.7672 -6.9196 -1.5045 6.8117 28.9559
#
#
#
# Elastic Compliance Matrix: (Units=1/GPa)
#
#
# Indices 1 2 3 4 5 6 
#
# 1 0.015874 0.000323 -0.005090 0.007512 0.005300 0.004444
# 2 0.000323 0.012050 -0.003378 0.008217 0.002358 0.005756
# 3 -0.005090 -0.003378 0.016976 -0.014256 0.006591 -0.002107
# 4 0.007512 0.008217 -0.014256 0.067449 0.008326 0.005614
# 5 0.005300 0.002358 0.006591 0.008326 0.035416 -0.002923
# 6 0.004444 0.005756 -0.002107 0.005614 -0.002923 0.039921
#
#
# Mechanical properties :
#
#
# Convention : Reuss Voigt Hill
#
# Bulk Modulus (GPa) = 34.94918 49.19265 42.07092
# Shear Modulus (GPa) = 23.41793 32.24063 27.82928
#
# Velocity S-wave (km/s) = 3.17620 3.72680 3.46246
# Velocity P-wave (km/s) = 5.33918 6.30163 5.84026
#
# Compressibility (1/GPa) = 0.02861297
#
# Stress axis : x y z
#
# Youngs Moduli (GPa) = 62.99494 82.98437 58.90714
#
# Poissons Ratio (x) = -0.02683 0.29981
# Poissons Ratio (y) = -0.02036 0.19896
# Poissons Ratio (z) = 0.32062 0.28028
#
# Static dielectric constant tensor:
#      x y z
#    x 1.977100 0.030140 0.058130 
#    y 0.030140 1.888440 0.018880 
#    z 0.058130 0.018880 1.832510 
# 
# From -- ./inp_files/140899.got.cif
#   From: 2010.05.17/outbox.cif.g08.bks.cpg/sg2_71_cif.got.tgz:140899.got - 2010.06.03 11:33:40.
