data_PCOD9015706
_publ_section_title
;
Structure prediction by ZEFSAII (Michael W. Deem and Ramdas Pophale) SiO2 
 PCOD9015706
Probable space group: P -1
;
_chemical_formula_sum "Si O2"
_cell_formula_units_Z 16
_cell_length_a 18.936843
_cell_length_b 18.512339
_cell_length_c 6.534045
_cell_angle_alpha 43.711681
_cell_angle_beta 41.182689
_cell_angle_gamma 24.615530
_cell_volume 621.983962
_symmetry_space_group_name_H-M "P -1"
_symmetry_group_IT_number 2
_symmetry_cell_setting 'triclinic'
loop_
_space_group_symop_operation_xyz
x,y,z
-x,-y,-z
loop_
_atom_site_type_symbol
_atom_site_label
_atom_site_fract_x
_atom_site_fract_y
_atom_site_fract_z
Si Si1 0.908324 0.389744 0.077558
Si Si2 0.845878 0.146419 0.199640
Si Si3 0.653826 0.256330 0.017683
Si Si4 0.232868 0.272763 0.654048
Si Si5 0.205431 0.997742 0.085029
Si Si6 0.679072 0.608576 0.487223
Si Si7 0.306792 0.598254 0.675203
Si Si8 0.506109 0.115616 0.040890
O O1 0.840247 0.430010 0.375116
O O2 0.732460 0.489202 0.130280
O O3 0.057071 0.199086 0.042824
O O4 0.025666 0.403021 0.809358
O O5 0.669071 0.264957 0.206120
O O6 0.823058 0.269419 0.124766
O O7 0.850082 0.058003 0.547462
O O8 0.000000 0.000000 0.000000
O O9 0.451394 0.378121 0.165800
O O10 0.731453 0.298366 0.652729
O O11 0.762439 0.071416 0.070094
O O12 0.250443 0.364388 0.557487
O O13 0.334320 0.204497 0.354864
O O14 0.349819 0.090833 0.889591
O O15 0.387507 0.898030 0.995557
O O16 0.561879 0.767718 0.248179
O O17 0.500000 0.500000 0.500000
#
# Coordination Sequence:
#
# PCOD9015706 Si02
#       8
#     2   2   2   2   2   2   2   2
#     4  11  25  42  65  98 140 169 218 279 330 387
#     4  11  22  39  66  95 126 173 226 269 321 386
#     4  11  23  41  70  95 130 177 225 266 320 402
#     4  10  23  44  67  96 133 173 216 280 329 389
#     4  10  21  42  64  95 136 172 215 273 326 387
#     4  12  23  41  70 100 129 173 223 269 330 396
#     4  11  26  45  64  96 139 179 215 270 337 391
#     4  10  21  42  69  96 129 175 224 262 331 399
#
# _framework density 25.724136999999999
#
# number of rings (size 3 to 8) (size 9 to 14) (size 15 to 20)
#    0.000    1.250    2.500    3.000    1.750    5.500 
#    0.000    3.750    0.000    0.000    0.000    0.000 
#    0.000    0.000    0.000    0.000    0.000    0.000 
#
# Total GULP energy -89432.039880 kJ/mol
# GULP energy per Si atom -5589.502493 kJ/mol
# Density = 2.566559 g / cm^3
# Si number density = 25.724137 Si / 1000 Ang^3
#
#
#
# Elastic Constant Matrix: (Units=GPa)
#
#
# Indices 1 2 3 4 5 6 
#
# 1 195.8266 26.5144 38.8932 14.8782 -22.1334 11.8978
# 2 26.5144 71.1366 27.3489 21.6071 -10.5024 -1.0242
# 3 38.8932 27.3489 99.3641 18.2516 -8.9946 2.2384
# 4 14.8782 21.6071 18.2516 48.4720 -5.7326 5.1087
# 5 -22.1334 -10.5024 -8.9946 -5.7326 33.6801 13.6758
# 6 11.8978 -1.0242 2.2384 5.1087 13.6758 40.3392
#
#
#
# Elastic Compliance Matrix: (Units=1/GPa)
#
#
# Indices 1 2 3 4 5 6 
#
# 1 0.006330 -0.001085 -0.001688 0.000104 0.004784 -0.003436
# 2 -0.001085 0.017981 -0.003152 -0.006273 0.002638 0.000852
# 3 -0.001688 -0.003152 0.012134 -0.002529 0.000802 -0.000207
# 4 0.000104 -0.006273 -0.002529 0.025234 0.003537 -0.004444
# 5 0.004784 0.002638 0.000802 0.003537 0.040842 -0.015682
# 6 -0.003436 0.000852 -0.000207 -0.004444 -0.015682 0.031716
#
#
# Mechanical properties :
#
#
# Convention : Reuss Voigt Hill
#
# Bulk Modulus (GPa) = 40.65976 61.31558 50.98767
# Shear Modulus (GPa) = 32.40739 42.73631 37.57185
#
# Velocity S-wave (km/s) = 3.55322 4.08036 3.82588
# Velocity P-wave (km/s) = 5.71614 6.78872 6.27539
#
# Compressibility (1/GPa) = 0.02459434
#
# Stress axis : x y z
#
# Youngs Moduli (GPa) = 157.97142 55.61392 82.41253
#
# Poissons Ratio (x) = 0.06037 0.13909
# Poissons Ratio (y) = 0.17147 0.25979
# Poissons Ratio (z) = 0.26662 0.17531
#
# Static dielectric constant tensor:
#      x y z
#    x 2.059390 -0.134130 -0.006980 
#    y -0.134130 2.225380 -0.058310 
#    z -0.006980 -0.058310 2.003440 
# 
# From -- ./inp_files/111617.got.cif
#   From: 2010.05.17/outbox.cif.g08.bks.cpg/sg2_56_cif.got.tgz:111617.got - 2010.06.03 11:33:40.
