data_PCOD9015333
_publ_section_title
;
Structure prediction by ZEFSAII (Michael W. Deem and Ramdas Pophale) SiO2 
 PCOD9015333
Probable space group: P -1
;
_chemical_formula_sum "Si O2"
_cell_formula_units_Z 14
_cell_length_a 7.407735
_cell_length_b 15.529339
_cell_length_c 19.714489
_cell_angle_alpha 157.570541
_cell_angle_beta 137.613541
_cell_angle_gamma 40.976962
_cell_volume 559.851749
_symmetry_space_group_name_H-M "P -1"
_symmetry_group_IT_number 2
_symmetry_cell_setting 'triclinic'
loop_
_space_group_symop_operation_xyz
x,y,z
-x,-y,-z
loop_
_atom_site_type_symbol
_atom_site_label
_atom_site_fract_x
_atom_site_fract_y
_atom_site_fract_z
Si Si1 0.941368 0.822705 0.768441
Si Si2 0.225511 0.580245 0.389295
Si Si3 0.385153 0.339652 0.555083
Si Si4 0.992023 0.291356 0.942421
Si Si5 0.217365 0.666583 0.942710
Si Si6 0.280085 0.638537 0.215094
Si Si7 0.555150 0.162297 0.252661
O O1 0.240223 0.714403 0.560691
O O2 0.829391 0.769082 0.624089
O O3 0.700048 0.820307 0.753853
O O4 0.956915 0.087242 0.959314
O O5 0.354271 0.695151 0.448788
O O6 0.936006 0.532805 0.258849
O O7 0.442244 0.322483 0.273705
O O8 0.526837 0.257868 0.606985
O O9 0.212067 0.615845 0.713550
O O10 0.273868 0.101595 0.905976
O O11 0.886856 0.212325 0.784580
O O12 0.073582 0.530993 0.123684
O O13 0.779329 0.308885 0.957583
O O14 0.514877 0.583930 0.929534
#
# Coordination Sequence:
#
# PCOD9015333 Si02
#       7
#     2   2   2   2   2   2   2
#     4  10  22  37  66  93 126 158 205 257 315 360
#     4  10  22  37  66  93 126 158 205 257 315 360
#     4  10  21  42  60  93 128 163 201 257 307 371
#     4  11  24  42  63  90 127 166 207 254 301 365
#     4  12  23  40  66  94 119 162 210 260 304 366
#     4  11  24  42  63  90 127 166 207 254 301 365
#     4  10  21  42  60  93 128 163 201 257 307 371
#
# _framework density 25.006618
#
# number of rings (size 3 to 8) (size 9 to 14) (size 15 to 20)
#    0.000    1.429    2.857    2.143    2.000    5.714 
#    0.000    7.143    0.000    0.000    0.000    0.000 
#    0.000    0.000    0.000    0.000    0.000    0.000 
#
# Total GULP energy -78365.778728 kJ/mol
# GULP energy per Si atom -5597.555623 kJ/mol
# Density = 2.494970 g / cm^3
# Si number density = 25.006618 Si / 1000 Ang^3
#
#
#
# Elastic Constant Matrix: (Units=GPa)
#
#
# Indices 1 2 3 4 5 6 
#
# 1 73.9181 -2.7736 2.4467 -4.7530 -7.5216 14.6383
# 2 -2.7736 65.3725 5.4340 -23.3075 -7.3229 13.2833
# 3 2.4467 5.4340 45.0689 -15.1273 9.6489 0.8988
# 4 -4.7530 -23.3075 -15.1273 35.4150 2.6733 -6.3542
# 5 -7.5216 -7.3229 9.6489 2.6733 20.2217 -3.9759
# 6 14.6383 13.2833 0.8988 -6.3542 -3.9759 33.8259
#
#
#
# Elastic Compliance Matrix: (Units=1/GPa)
#
#
# Indices 1 2 3 4 5 6 
#
# 1 0.015944 0.003739 -0.001891 0.002014 0.006510 -0.007174
# 2 0.003739 0.022450 0.000570 0.013782 0.006020 -0.007152
# 3 -0.001891 0.000570 0.030768 0.014642 -0.017010 0.000528
# 4 0.002014 0.013782 0.014642 0.044513 -0.006960 0.000871
# 5 0.006510 0.006020 -0.017010 -0.006960 0.063367 0.001411
# 6 -0.007174 -0.007152 0.000528 0.000871 0.001411 0.035792
#
#
# Mechanical properties :
#
#
# Convention : Reuss Voigt Hill
#
# Bulk Modulus (GPa) = 13.51399 21.61927 17.56663
# Shear Modulus (GPa) = 21.49013 29.84267 25.66640
#
# Velocity S-wave (km/s) = 2.93469 3.45830 3.20720
# Velocity P-wave (km/s) = 4.11086 4.96091 4.55575
#
# Compressibility (1/GPa) = 0.07399739
#
# Stress axis : x y z
#
# Youngs Moduli (GPa) = 62.71930 44.54401 32.50125
#
# Poissons Ratio (x) = -0.16654 0.06146
# Poissons Ratio (y) = -0.23449 -0.01853
# Poissons Ratio (z) = 0.11860 -0.02539
#
# Static dielectric constant tensor:
#      x y z
#    x 1.954330 0.010690 -0.024080 
#    y 0.010690 1.979170 -0.028180 
#    z -0.024080 -0.028180 1.987170 
# 
# From -- ./inp_files/608363.got.cif
#   From: 2010.05.17/outbox.cif.g08.bks.cpg/sg2_305_cif.got.tgz:608363.got - 2010.06.03 11:33:40.
