data_PCOD9015664
_publ_section_title
;
Structure prediction by ZEFSAII (Michael W. Deem and Ramdas Pophale) SiO2 
 PCOD9015664
Probable space group: P -1
;
_chemical_formula_sum "Si O2"
_cell_formula_units_Z 14
_cell_length_a 11.092828
_cell_length_b 10.889953
_cell_length_c 10.367933
_cell_angle_alpha 109.916358
_cell_angle_beta 99.327894
_cell_angle_gamma 139.436305
_cell_volume 555.442633
_symmetry_space_group_name_H-M "P -1"
_symmetry_group_IT_number 2
_symmetry_cell_setting 'triclinic'
loop_
_space_group_symop_operation_xyz
x,y,z
-x,-y,-z
loop_
_atom_site_type_symbol
_atom_site_label
_atom_site_fract_x
_atom_site_fract_y
_atom_site_fract_z
Si Si1 0.375733 0.090155 0.061280
Si Si2 0.773723 0.394421 0.453268
Si Si3 0.246914 0.610972 0.988139
Si Si4 0.133396 0.536444 0.224783
Si Si5 0.779067 0.711506 0.584271
Si Si6 0.840054 0.742185 0.083896
Si Si7 0.583920 0.573501 0.247775
O O1 0.543669 0.172377 0.229425
O O2 0.495126 0.168870 0.969374
O O3 0.446181 0.307917 0.164923
O O4 0.078064 0.779219 0.913307
O O5 0.706630 0.309284 0.561552
O O6 0.838345 0.613036 0.542776
O O7 0.000000 0.500000 0.500000
O O8 0.077913 0.321598 0.876473
O O9 0.069578 0.536390 0.846212
O O10 0.283162 0.687155 0.169712
O O11 0.500000 0.500000 0.500000
O O12 0.782966 0.782180 0.469167
O O13 0.962670 0.959105 0.802331
O O14 0.708003 0.672530 0.165875
O O15 0.638640 0.532791 0.858530
#
# Coordination Sequence:
#
# PCOD9015664 Si02
#       7
#     2   2   2   2   2   2   2
#     4  10  21  44  67  91 131 174 220 277 334 392
#     4  11  24  43  69  98 129 179 231 265 334 409
#     4  10  23  39  66  97 129 172 224 271 334 398
#     4  11  23  43  65  96 134 174 222 282 329 395
#     4  11  25  40  66 101 132 170 217 277 337 393
#     4  10  21  42  64  92 131 171 218 277 327 404
#     4   9  21  40  64  93 123 173 221 264 335 395
#
# _framework density 25.205126
#
# number of rings (size 3 to 8) (size 9 to 14) (size 15 to 20)
#    0.000    1.714    1.429    1.714    6.000    0.571 
#    0.000    4.286    0.000    0.000    0.000    0.000 
#    0.000    0.000    0.000    0.000    0.000    0.000 
#
# Total GULP energy -78097.112628 kJ/mol
# GULP energy per Si atom -5578.365188 kJ/mol
# Density = 2.514776 g / cm^3
# Si number density = 25.205126 Si / 1000 Ang^3
#
#
#
# Elastic Constant Matrix: (Units=GPa)
#
#
# Indices 1 2 3 4 5 6 
#
# 1 386.3354 -23.4795 -64.7519 -174.0483 -56.0753 -168.3410
# 2 -23.4795 118.2023 44.1870 7.9364 13.3105 51.6345
# 3 -64.7519 44.1870 131.0664 16.7057 20.0481 38.7430
# 4 -174.0483 7.9364 16.7057 147.1157 28.2884 83.0131
# 5 -56.0753 13.3105 20.0481 28.2884 38.9160 24.9249
# 6 -168.3410 51.6345 38.7430 83.0131 24.9249 139.2038
#
#
#
# Elastic Compliance Matrix: (Units=1/GPa)
#
#
# Indices 1 2 3 4 5 6 
#
# 1 0.009282 -0.003084 0.001983 0.005817 0.004329 0.007573
# 2 -0.003084 0.012583 -0.003220 0.000806 -0.002895 -0.007463
# 3 0.001983 -0.003220 0.009774 0.001730 -0.002521 0.000292
# 4 0.005817 0.000806 0.001730 0.015256 -0.002319 -0.002428
# 5 0.004329 -0.002895 -0.002521 -0.002319 0.034488 0.002219
# 6 0.007573 -0.007463 0.000292 -0.002428 0.002219 0.020079
#
#
# Mechanical properties :
#
#
# Convention : Reuss Voigt Hill
#
# Bulk Modulus (GPa) = 43.48052 60.83504 52.15778
# Shear Modulus (GPa) = 42.45612 110.35699 76.40655
#
# Velocity S-wave (km/s) = 4.10863 6.62409 5.51178
# Velocity P-wave (km/s) = 6.30840 9.09358 7.82589
#
# Compressibility (1/GPa) = 0.02299881
#
# Stress axis : x y z
#
# Youngs Moduli (GPa) = 107.73246 79.47215 102.31552
#
# Poissons Ratio (x) = 0.24507 -0.20291
# Poissons Ratio (y) = 0.33222 0.32941
# Poissons Ratio (z) = -0.21366 0.25587
#
# Static dielectric constant tensor:
#      x y z
#    x 2.102210 0.057030 -0.049570 
#    y 0.057030 2.046390 -0.003100 
#    z -0.049570 -0.003100 2.027980 
# 
# From -- ./inp_files/428404.got.cif
#   From: 2010.05.17/outbox.cif.g08.bks.cpg/sg2_215_cif.got.tgz:428404.got - 2010.06.03 11:33:40.
