data_PCOD9015807
_publ_section_title
;
Structure prediction by ZEFSAII (Michael W. Deem and Ramdas Pophale) SiO2 
 PCOD9015807
Probable space group: P -1
;
_chemical_formula_sum "Si O2"
_cell_formula_units_Z 16
_cell_length_a 16.776686
_cell_length_b 19.242800
_cell_length_c 8.115415
_cell_angle_alpha 111.653720
_cell_angle_beta 58.450801
_cell_angle_gamma 158.551748
_cell_volume 755.598514
_symmetry_space_group_name_H-M "P -1"
_symmetry_group_IT_number 2
_symmetry_cell_setting 'triclinic'
loop_
_space_group_symop_operation_xyz
x,y,z
-x,-y,-z
loop_
_atom_site_type_symbol
_atom_site_label
_atom_site_fract_x
_atom_site_fract_y
_atom_site_fract_z
Si Si1 0.802299 0.920140 0.613517
Si Si2 0.453994 0.190359 0.928681
Si Si3 0.952424 0.763790 0.566656
Si Si4 0.705331 0.238736 0.879563
Si Si5 0.798268 0.380489 0.478616
Si Si6 0.018534 0.900414 0.947706
Si Si7 0.440521 0.021780 0.325215
Si Si8 0.613114 0.714932 0.306087
O O1 0.620981 0.797424 0.860472
O O2 0.640490 0.779649 0.503506
O O3 0.954117 0.109413 0.566850
O O4 0.000000 0.000000 0.500000
O O5 0.582263 0.223704 0.934783
O O6 0.179316 0.965203 0.947703
O O7 0.651265 0.338467 0.691137
O O8 0.679905 0.523208 0.617387
O O9 0.927539 0.794066 0.786496
O O10 0.177894 0.872026 0.450356
O O11 0.012943 0.461147 0.736952
O O12 0.614475 0.107094 0.734508
O O13 0.607235 0.155541 0.096518
O O14 0.591067 0.167982 0.445599
O O15 0.000000 0.500000 0.500000
O O16 0.232894 0.121932 0.855090
O O17 0.784559 0.767080 0.173375
#
# Coordination Sequence:
#
# PCOD9015807 Si02
#       8
#     2   2   2   2   2   2   2   2
#     4  11  23  43  64  91 135 170 209 265 311 376
#     4  11  21  42  63  92 129 170 205 264 318 366
#     4  11  23  41  67  94 126 171 214 258 323 381
#     4  10  24  42  65  93 125 165 216 260 322 376
#     4  10  23  42  65  91 125 167 213 262 317 375
#     4  10  21  42  65  90 133 164 213 270 309 378
#     4  11  22  43  66  92 128 164 210 269 315 383
#     4  10  23  41  66  94 126 173 217 254 322 379
#
# _framework density 21.175266000000001
#
# number of rings (size 3 to 8) (size 9 to 14) (size 15 to 20)
#    0.000    1.500    3.750    0.750    1.750    2.500 
#    9.000    1.250    0.000    0.000    0.000    0.000 
#    0.000    0.000    0.000    0.000    0.000    0.000 
#
# Total GULP energy -89277.671750 kJ/mol
# GULP energy per Si atom -5579.854484 kJ/mol
# Density = 2.112707 g / cm^3
# Si number density = 21.175266 Si / 1000 Ang^3
#
#
#
# Elastic Constant Matrix: (Units=GPa)
#
#
# Indices 1 2 3 4 5 6 
#
# 1 44.7206 17.3257 24.6571 -4.7107 -15.1954 12.3450
# 2 17.3257 135.5151 63.1634 -10.4027 -1.8196 12.6123
# 3 24.6571 63.1634 151.1572 -3.8898 -20.8485 7.3349
# 4 -4.7107 -10.4027 -3.8898 24.2582 8.9256 -3.9214
# 5 -15.1954 -1.8196 -20.8485 8.9256 33.9326 -0.5033
# 6 12.3450 12.6123 7.3349 -3.9214 -0.5033 20.1214
#
#
#
# Elastic Compliance Matrix: (Units=1/GPa)
#
#
# Indices 1 2 3 4 5 6 
#
# 1 0.034019 -0.001635 -0.002022 -0.002823 0.014361 -0.019301
# 2 -0.001635 0.010136 -0.004259 0.004319 -0.003987 -0.003056
# 3 -0.002022 -0.004259 0.009388 -0.002660 0.005335 0.000103
# 4 -0.002823 0.004319 -0.002660 0.049292 -0.015496 0.009213
# 5 0.014361 -0.003987 0.005335 -0.015496 0.042890 -0.010204
# 6 -0.019301 -0.003056 0.000103 0.009213 -0.010204 0.064958
#
#
# Mechanical properties :
#
#
# Convention : Reuss Voigt Hill
#
# Bulk Modulus (GPa) = 26.51691 60.18726 43.35208
# Shear Modulus (GPa) = 20.91313 30.74554 25.82934
#
# Velocity S-wave (km/s) = 3.14605 3.81459 3.49634
# Velocity P-wave (km/s) = 5.07411 6.92001 6.06767
#
# Compressibility (1/GPa) = 0.03771178
#
# Stress axis : x y z
#
# Youngs Moduli (GPa) = 29.39516 98.65921 106.52305
#
# Poissons Ratio (x) = 0.16127 0.21534
# Poissons Ratio (y) = 0.04805 0.45371
# Poissons Ratio (z) = 0.05942 0.42022
#
# Static dielectric constant tensor:
#      x y z
#    x 1.836020 -0.027590 0.035510 
#    y -0.027590 1.763330 -0.013940 
#    z 0.035510 -0.013940 1.781090 
# 
# From -- ./inp_files/337745.got.cif
#   From: 2010.05.17/outbox.cif.g08.bks.cpg/sg2_169_cif.got.tgz:337745.got - 2010.06.03 11:33:40.
