data_PCOD9015582
_publ_section_title
;
Structure prediction by ZEFSAII (Michael W. Deem and Ramdas Pophale) SiO2 
 PCOD9015582
Probable space group: P -1
;
_chemical_formula_sum "Si O2"
_cell_formula_units_Z 16
_cell_length_a 11.215484
_cell_length_b 10.751170
_cell_length_c 7.182194
_cell_angle_alpha 113.270111
_cell_angle_beta 55.705560
_cell_angle_gamma 117.788417
_cell_volume 622.488869
_symmetry_space_group_name_H-M "P -1"
_symmetry_group_IT_number 2
_symmetry_cell_setting 'triclinic'
loop_
_space_group_symop_operation_xyz
x,y,z
-x,-y,-z
loop_
_atom_site_type_symbol
_atom_site_label
_atom_site_fract_x
_atom_site_fract_y
_atom_site_fract_z
Si Si1 0.969507 0.609187 0.811579
Si Si2 0.289508 0.998014 0.843700
Si Si3 0.448110 0.493617 0.258302
Si Si4 0.259875 0.260250 0.799300
Si Si5 0.720968 0.292288 0.527707
Si Si6 0.506981 0.214234 0.034184
Si Si7 0.815863 0.315536 0.963926
Si Si8 0.982328 0.117262 0.719057
O O1 0.097324 0.642050 0.561501
O O2 0.859365 0.460272 0.897139
O O3 0.088876 0.654046 0.908980
O O4 0.853326 0.697152 0.931525
O O5 0.309293 0.131161 0.764469
O O6 0.393305 0.064506 0.973316
O O7 0.314242 0.862672 0.635578
O O8 0.118499 0.948161 0.048088
O O9 0.598411 0.600535 0.286226
O O10 0.324057 0.574109 0.442003
O O11 0.500000 0.500000 0.000000
O O12 0.418458 0.326948 0.223299
O O13 0.148471 0.211652 0.694952
O O14 0.619120 0.260045 0.783541
O O15 0.635069 0.241343 0.097103
O O16 0.888380 0.203868 0.745913
O O17 0.000000 0.000000 0.500000
#
# Coordination Sequence:
#
# PCOD9015582 Si02
#       8
#     2   2   2   2   2   2   2   2
#     4  10  22  42  69  90 127 173 219 271 323 385
#     4  12  24  43  67  99 134 173 217 276 335 393
#     4  10  21  42  63  98 134 164 221 275 325 385
#     4  11  21  43  72  92 134 170 222 278 332 380
#     4  11  23  41  65 103 127 172 220 271 331 388
#     4  11  24  40  68  97 135 169 218 277 329 392
#     4  10  22  44  63  88 133 173 217 262 324 388
#     4  11  27  44  64  97 135 178 224 266 330 402
#
# _framework density 25.703271999999998
#
# number of rings (size 3 to 8) (size 9 to 14) (size 15 to 20)
#    0.000    1.250    6.250    0.750    1.750    2.000 
#    2.250    0.625    0.000    0.000    0.000    0.000 
#    0.000    0.000    0.000    0.000    0.000    0.000 
#
# Total GULP energy -89375.362377 kJ/mol
# GULP energy per Si atom -5585.960149 kJ/mol
# Density = 2.564477 g / cm^3
# Si number density = 25.703272 Si / 1000 Ang^3
#
#
#
# Elastic Constant Matrix: (Units=GPa)
#
#
# Indices 1 2 3 4 5 6 
#
# 1 72.5822 13.0329 11.7284 19.2659 -14.0461 7.0178
# 2 13.0329 115.4384 18.1092 24.6272 -10.9783 2.8133
# 3 11.7284 18.1092 109.4150 19.8797 -23.6753 -15.9847
# 4 19.2659 24.6272 19.8797 44.6089 -7.4942 -7.6613
# 5 -14.0461 -10.9783 -23.6753 -7.4942 39.0489 4.0120
# 6 7.0178 2.8133 -15.9847 -7.6613 4.0120 43.5393
#
#
#
# Elastic Compliance Matrix: (Units=1/GPa)
#
#
# Indices 1 2 3 4 5 6 
#
# 1 0.017179 0.000272 -0.000069 -0.007447 0.005259 -0.004607
# 2 0.000272 0.010114 -0.000636 -0.005483 0.001715 -0.002054
# 3 -0.000069 -0.000636 0.011577 -0.003245 0.005865 0.003191
# 4 -0.007447 -0.005483 -0.003245 0.030976 -0.000848 0.005892
# 5 0.005259 0.001715 0.005865 -0.000848 0.031567 -0.001863
# 6 -0.004607 -0.002054 0.003191 0.005892 -0.001863 0.026223
#
#
# Mechanical properties :
#
#
# Convention : Reuss Voigt Hill
#
# Bulk Modulus (GPa) = 26.31161 42.57515 34.44338
# Shear Modulus (GPa) = 35.41824 42.41043 38.91433
#
# Velocity S-wave (km/s) = 3.71612 4.06643 3.89522
# Velocity P-wave (km/s) = 5.35459 6.21674 5.80170
#
# Compressibility (1/GPa) = 0.03800603
#
# Stress axis : x y z
#
# Youngs Moduli (GPa) = 58.20903 98.86860 86.37823
#
# Poissons Ratio (x) = -0.02692 0.00593
# Poissons Ratio (y) = -0.01585 0.05494
# Poissons Ratio (z) = 0.00400 0.06289
#
# Static dielectric constant tensor:
#      x y z
#    x 2.124440 -0.005020 0.058400 
#    y -0.005020 2.025130 0.018800 
#    z 0.058400 0.018800 2.115850 
# 
# From -- ./inp_files/263309.got.cif
#   From: 2010.05.17/outbox.cif.g08.bks.cpg/sg2_132_cif.got.tgz:263309.got - 2010.06.03 11:33:40.
