data_PCOD9015815
_publ_section_title
;
Structure prediction by ZEFSAII (Michael W. Deem and Ramdas Pophale) SiO2 
 PCOD9015815
Probable space group: P -1
;
_chemical_formula_sum "Si O2"
_cell_formula_units_Z 16
_cell_length_a 7.190915
_cell_length_b 14.800216
_cell_length_c 20.266651
_cell_angle_alpha 19.667242
_cell_angle_beta 118.634859
_cell_angle_gamma 123.831609
_cell_volume 595.130904
_symmetry_space_group_name_H-M "P -1"
_symmetry_group_IT_number 2
_symmetry_cell_setting 'triclinic'
loop_
_space_group_symop_operation_xyz
x,y,z
-x,-y,-z
loop_
_atom_site_type_symbol
_atom_site_label
_atom_site_fract_x
_atom_site_fract_y
_atom_site_fract_z
Si Si1 0.438494 0.669136 0.232221
Si Si2 0.923485 0.396860 0.673161
Si Si3 0.604241 0.842850 0.774121
Si Si4 0.080203 0.825421 0.816144
Si Si5 0.844284 0.882504 0.246302
Si Si6 0.680269 0.328667 0.358085
Si Si7 0.917648 0.805371 0.556378
Si Si8 0.288012 0.159472 0.064621
O O1 0.238943 0.570197 0.319884
O O2 0.659645 0.686655 0.298447
O O3 0.311004 0.476217 0.281464
O O4 0.500000 0.000000 0.000000
O O5 0.943095 0.648872 0.452324
O O6 0.164986 0.454337 0.708826
O O7 0.792504 0.089060 0.831836
O O8 0.598201 0.923486 0.794830
O O9 0.853762 0.875226 0.768330
O O10 0.537954 0.041362 0.572834
O O11 0.500000 0.500000 0.000000
O O12 0.235412 0.960786 0.814171
O O13 0.158834 0.012923 0.635938
O O14 0.000000 0.500000 0.000000
O O15 0.039899 0.135567 0.067653
O O16 0.862492 0.252538 0.395398
O O17 0.585370 0.524288 0.161250
O O18 0.000000 0.000000 0.500000
#
# Coordination Sequence:
#
# PCOD9015815 Si02
#       8
#     2   2   2   2   2   2   2   2
#     4  11  24  41  63 101 133 167 220 282 324 386
#     4  11  21  42  64  95 129 168 215 265 333 397
#     4  10  23  44  60  92 131 167 218 268 318 386
#     4  10  22  39  66  92 120 176 217 261 332 395
#     4  11  21  41  67  94 135 165 219 279 330 384
#     4  10  21  42  65  91 129 167 218 268 322 393
#     4  10  22  41  63  93 131 173 213 263 332 394
#     4  11  23  40  70  93 124 179 210 265 336 392
#
# _framework density 26.884837999999998
#
# number of rings (size 3 to 8) (size 9 to 14) (size 15 to 20)
#    0.000    1.500    5.000    2.625    5.250    1.500 
#    2.250    0.000    0.000    0.000    0.000    0.000 
#    0.000    0.000    0.000    0.000    0.000    0.000 
#
# Total GULP energy -89424.954957 kJ/mol
# GULP energy per Si atom -5589.059685 kJ/mol
# Density = 2.682365 g / cm^3
# Si number density = 26.884838 Si / 1000 Ang^3
#
#
#
# Elastic Constant Matrix: (Units=GPa)
#
#
# Indices 1 2 3 4 5 6 
#
# 1 49.4323 38.1611 17.1154 9.9446 -5.3382 -10.5204
# 2 38.1611 171.5479 60.6332 -25.8475 6.4966 -16.0582
# 3 17.1154 60.6332 200.9492 2.4552 -8.9154 -4.8687
# 4 9.9446 -25.8475 2.4552 56.3368 -6.7042 6.6352
# 5 -5.3382 6.4966 -8.9154 -6.7042 38.6590 -7.2555
# 6 -10.5204 -16.0582 -4.8687 6.6352 -7.2555 42.5190
#
#
#
# Elastic Compliance Matrix: (Units=1/GPa)
#
#
# Indices 1 2 3 4 5 6 
#
# 1 0.029858 -0.007648 0.000270 -0.008976 0.005193 0.006817
# 2 -0.007648 0.009255 -0.002301 0.005423 -0.002179 0.000121
# 3 0.000270 -0.002301 0.005741 -0.001200 0.001599 0.000315
# 4 -0.008976 0.005423 -0.001200 0.022399 0.000767 -0.003675
# 5 0.005193 -0.002179 0.001599 0.000767 0.028462 0.005382
# 6 0.006817 0.000121 0.000315 -0.003675 0.005382 0.026779
#
#
# Mechanical properties :
#
#
# Convention : Reuss Voigt Hill
#
# Bulk Modulus (GPa) = 39.22349 72.63878 55.93114
# Shear Modulus (GPa) = 33.25509 47.90428 40.57968
#
# Velocity S-wave (km/s) = 3.52084 4.22576 3.88930
# Velocity P-wave (km/s) = 5.58118 7.13348 6.40453
#
# Compressibility (1/GPa) = 0.02549493
#
# Stress axis : x y z
#
# Youngs Moduli (GPa) = 33.49162 108.05003 174.18717
#
# Poissons Ratio (x) = 0.82642 -0.04702
# Poissons Ratio (y) = 0.25616 0.40082
# Poissons Ratio (z) = -0.00904 0.24863
#
# Static dielectric constant tensor:
#      x y z
#    x 2.156620 0.059540 0.037920 
#    y 0.059540 2.384900 -0.097500 
#    z 0.037920 -0.097500 2.112640 
# 
# From -- ./inp_files/455491.got.cif
#   From: 2010.05.17/outbox.cif.g08.bks.cpg/sg2_228_cif.got.tgz:455491.got - 2010.06.03 11:33:40.
