data_PCOD9015718
_publ_section_title
;
Structure prediction by ZEFSAII (Michael W. Deem and Ramdas Pophale) SiO2 
 PCOD9015718
Probable space group: P -1
;
_chemical_formula_sum "Si O2"
_cell_formula_units_Z 16
_cell_length_a 14.058407
_cell_length_b 11.778299
_cell_length_c 8.909216
_cell_angle_alpha 150.925392
_cell_angle_beta 81.473931
_cell_angle_gamma 89.931517
_cell_volume 682.207333
_symmetry_space_group_name_H-M "P -1"
_symmetry_group_IT_number 2
_symmetry_cell_setting 'triclinic'
loop_
_space_group_symop_operation_xyz
x,y,z
-x,-y,-z
loop_
_atom_site_type_symbol
_atom_site_label
_atom_site_fract_x
_atom_site_fract_y
_atom_site_fract_z
Si Si1 0.245623 0.966355 0.708957
Si Si2 0.191439 0.556755 0.798487
Si Si3 0.148357 0.770720 0.745344
Si Si4 0.654670 0.858982 0.856374
Si Si5 0.448128 0.770797 0.250791
Si Si6 0.020421 0.305873 0.462301
Si Si7 0.088572 0.874916 0.447597
Si Si8 0.543088 0.245052 0.118167
O O1 0.228870 0.750849 0.572140
O O2 0.344002 0.872096 0.478524
O O3 0.147877 0.041127 0.712836
O O4 0.267985 0.153576 0.040673
O O5 0.185923 0.729470 0.856989
O O6 0.295781 0.357249 0.518601
O O7 0.096037 0.451441 0.669603
O O8 0.171875 0.688163 0.113520
O O9 0.071543 0.613624 0.540363
O O10 0.087345 0.054007 0.086204
O O11 0.550235 0.870742 0.974788
O O12 0.631514 0.092193 0.024853
O O13 0.500000 0.000000 0.500000
O O14 0.500000 0.500000 0.000000
O O15 0.431841 0.732642 0.034204
O O16 0.963240 0.246502 0.553944
O O17 0.000000 0.000000 0.500000
O O18 0.500000 0.500000 0.500000
#
# Coordination Sequence:
#
# PCOD9015718 Si02
#       8
#     2   2   2   2   2   2   2   2
#     4  11  25  47  69 106 150 195 253 313 384 470
#     4  12  24  39  73 101 140 187 255 307 379 449
#     4  10  22  39  68  99 138 190 242 306 366 447
#     4  11  26  46  73 111 139 201 250 309 381 469
#     4  12  28  50  81 117 161 205 256 327 404 474
#     4  10  21  42  64  96 140 186 245 300 372 442
#     4  11  25  44  69 104 149 195 244 319 382 447
#     4  11  27  49  79 105 155 191 254 317 394 473
#
# _framework density 23.453281
#
# number of rings (size 3 to 8) (size 9 to 14) (size 15 to 20)
#    0.000    1.000    3.750    1.500    7.000    2.000 
#    0.000    2.500    0.000    0.000    0.000    0.000 
#    0.000    0.000    0.000    0.000    0.000    0.000 
#
# Total GULP energy -89356.282225 kJ/mol
# GULP energy per Si atom -5584.767639 kJ/mol
# Density = 2.339990 g / cm^3
# Si number density = 23.453281 Si / 1000 Ang^3
#
#
#
# Elastic Constant Matrix: (Units=GPa)
#
#
# Indices 1 2 3 4 5 6 
#
# 1 107.4449 41.2129 16.5070 -6.2521 8.9167 18.7337
# 2 41.2129 118.3212 39.2202 -31.1655 -11.8798 6.9994
# 3 16.5070 39.2202 97.3620 -27.6704 -7.5323 -4.6466
# 4 -6.2521 -31.1655 -27.6704 44.2281 4.9945 -8.1671
# 5 8.9167 -11.8798 -7.5323 4.9945 46.1875 -7.5521
# 6 18.7337 6.9994 -4.6466 -8.1671 -7.5521 51.2473
#
#
#
# Elastic Compliance Matrix: (Units=1/GPa)
#
#
# Indices 1 2 3 4 5 6 
#
# 1 0.012478 -0.004740 -0.001674 -0.003086 -0.004419 -0.005209
# 2 -0.004740 0.012886 -0.002074 0.006991 0.003363 0.001394
# 3 -0.001674 -0.002074 0.013805 0.007396 0.001829 0.003595
# 4 -0.003086 0.006991 0.007396 0.032755 0.001075 0.006222
# 5 -0.004419 0.003363 0.001829 0.001075 0.024383 0.005086
# 6 -0.005209 0.001394 0.003595 0.006222 0.005086 0.023294
#
#
# Mechanical properties :
#
#
# Convention : Reuss Voigt Hill
#
# Bulk Modulus (GPa) = 45.05596 57.44537 51.25067
# Shear Modulus (GPa) = 34.72862 43.41178 39.07020
#
# Velocity S-wave (km/s) = 3.85224 4.30698 4.08594
# Velocity P-wave (km/s) = 6.24812 7.01998 6.64526
#
# Compressibility (1/GPa) = 0.02219462
#
# Stress axis : x y z
#
# Youngs Moduli (GPa) = 80.14398 77.60087 72.43617
#
# Poissons Ratio (x) = 0.36780 0.12123
# Poissons Ratio (y) = 0.37986 0.15023
# Poissons Ratio (z) = 0.13413 0.16094
#
# Static dielectric constant tensor:
#      x y z
#    x 1.999500 0.020580 0.068440 
#    y 0.020580 1.874800 0.056670 
#    z 0.068440 0.056670 1.884760 
# 
# From -- ./inp_files/308937.got.cif
#   From: 2010.05.17/outbox.cif.g08.bks.cpg/sg2_155_cif.got.tgz:308937.got - 2010.06.03 11:33:40.
