data_PCOD9015386
_publ_section_title
;
Structure prediction by ZEFSAII (Michael W. Deem and Ramdas Pophale) SiO2 
 PCOD9015386
Probable space group: P -1
;
_chemical_formula_sum "Si O2"
_cell_formula_units_Z 14
_cell_length_a 5.151545
_cell_length_b 14.608545
_cell_length_c 10.128626
_cell_angle_alpha 116.500073
_cell_angle_beta 98.503539
_cell_angle_gamma 59.568006
_cell_volume 585.155773
_symmetry_space_group_name_H-M "P -1"
_symmetry_group_IT_number 2
_symmetry_cell_setting 'triclinic'
loop_
_space_group_symop_operation_xyz
x,y,z
-x,-y,-z
loop_
_atom_site_type_symbol
_atom_site_label
_atom_site_fract_x
_atom_site_fract_y
_atom_site_fract_z
Si Si1 0.220983 0.040314 0.103637
Si Si2 0.621942 0.596225 0.660261
Si Si3 0.969576 0.296582 0.168493
Si Si4 0.380175 0.748013 0.482312
Si Si5 0.156766 0.604061 0.033868
Si Si6 0.328735 0.085011 0.419306
Si Si7 0.906093 0.584914 0.255126
O O1 0.322800 0.010906 0.243845
O O2 0.034540 0.181222 0.175809
O O3 0.500000 0.000000 0.000000
O O4 0.000000 0.000000 0.000000
O O5 0.349153 0.604120 0.732539
O O6 0.492648 0.649366 0.542397
O O7 0.753716 0.680931 0.769796
O O8 0.900717 0.465085 0.627835
O O9 0.909840 0.291908 0.005480
O O10 0.511081 0.838972 0.562282
O O11 0.559448 0.671329 0.318568
O O12 0.019267 0.824547 0.508840
O O13 0.016188 0.643515 0.192065
O O14 0.500000 0.500000 0.000000
O O15 0.022779 0.533779 0.894755
O O16 0.500000 0.000000 0.500000
#
# Coordination Sequence:
#
# PCOD9015386 Si02
#       7
#     2   2   2   2   2   2   2
#     4  12  25  47  75 103 135 182 248 299 358 429
#     4  11  20  41  68 101 138 175 227 277 342 425
#     4  11  22  41  70  94 138 184 220 290 355 398
#     4  12  24  45  74  99 143 182 239 288 359 428
#     4  10  21  42  61  95 152 178 234 279 343 426
#     4  12  28  51  71 104 145 187 241 310 365 418
#     4  10  24  38  66 106 136 191 225 284 347 428
#
# _framework density 23.925253000000001
#
# number of rings (size 3 to 8) (size 9 to 14) (size 15 to 20)
#    0.000    0.857    4.286    2.571    2.000    1.143 
#    2.571    3.571    0.000    0.000    0.000    0.000 
#    0.000    0.000    0.000    0.000    0.000    0.000 
#
# Total GULP energy -78242.643999 kJ/mol
# GULP energy per Si atom -5588.760286 kJ/mol
# Density = 2.387080 g / cm^3
# Si number density = 23.925253 Si / 1000 Ang^3
#
#
#
# Elastic Constant Matrix: (Units=GPa)
#
#
# Indices 1 2 3 4 5 6 
#
# 1 142.4965 32.8811 60.4280 -12.4244 -5.2214 -18.0574
# 2 32.8811 80.0481 51.5656 -40.2818 2.8210 -17.8592
# 3 60.4280 51.5656 126.9051 -23.5589 -14.6048 -8.3626
# 4 -12.4244 -40.2818 -23.5589 46.8256 4.8551 -1.0011
# 5 -5.2214 2.8210 -14.6048 4.8551 50.5219 17.1444
# 6 -18.0574 -17.8592 -8.3626 -1.0011 17.1444 40.2309
#
#
#
# Elastic Compliance Matrix: (Units=1/GPa)
#
#
# Indices 1 2 3 4 5 6 
#
# 1 0.009333 0.000594 -0.004423 0.001056 -0.001937 0.004385
# 2 0.000594 0.043063 -0.011908 0.033573 -0.017574 0.025232
# 3 -0.004423 -0.011908 0.014210 -0.005197 0.007393 -0.007598
# 4 0.001056 0.033573 -0.005197 0.049995 -0.015602 0.022190
# 5 -0.001937 -0.017574 0.007393 -0.015602 0.031288 -0.020856
# 6 0.004385 0.025232 -0.007598 0.022190 -0.020856 0.045886
#
#
# Mechanical properties :
#
#
# Convention : Reuss Voigt Hill
#
# Bulk Modulus (GPa) = 28.46461 71.02214 49.74338
# Shear Modulus (GPa) = 21.10058 41.15402 31.12730
#
# Velocity S-wave (km/s) = 2.97297 4.15192 3.61088
# Velocity P-wave (km/s) = 4.86907 7.26182 6.18231
#
# Compressibility (1/GPa) = 0.03513134
#
# Stress axis : x y z
#
# Youngs Moduli (GPa) = 107.14341 23.22199 70.37285
#
# Poissons Ratio (x) = -0.01379 0.31128
# Poissons Ratio (y) = -0.06361 0.83798
# Poissons Ratio (z) = 0.47393 0.27652
#
# Static dielectric constant tensor:
#      x y z
#    x 1.976010 0.073530 0.010060 
#    y 0.073530 2.000560 -0.021060 
#    z 0.010060 -0.021060 2.057700 
# 
# From -- ./inp_files/135675.got.cif
#   From: 2010.05.17/outbox.cif.g08.bks.cpg/sg2_68_cif.got.tgz:135675.got - 2010.06.03 11:33:40.
