data_PCOD9015075
_publ_section_title
;
Structure prediction by ZEFSAII (Michael W. Deem and Ramdas Pophale) SiO2 
 PCOD9015075
Probable space group: P -1
;
_chemical_formula_sum "Si O2"
_cell_formula_units_Z 16
_cell_length_a 11.730402
_cell_length_b 15.662722
_cell_length_c 9.263812
_cell_angle_alpha 55.475648
_cell_angle_beta 50.055229
_cell_angle_gamma 33.298539
_cell_volume 714.551544
_symmetry_space_group_name_H-M "P -1"
_symmetry_group_IT_number 2
_symmetry_cell_setting 'triclinic'
loop_
_space_group_symop_operation_xyz
x,y,z
-x,-y,-z
loop_
_atom_site_type_symbol
_atom_site_label
_atom_site_fract_x
_atom_site_fract_y
_atom_site_fract_z
Si Si1 0.837792 0.807977 0.812369
Si Si2 0.258452 0.124399 0.656317
Si Si3 0.371188 0.432496 0.122466
Si Si4 0.851541 0.231458 0.990290
Si Si5 0.116610 0.356570 0.330861
Si Si6 0.868824 0.162424 0.370232
Si Si7 0.389375 0.365282 0.502928
Si Si8 0.397090 0.143349 0.801066
O O1 0.801369 0.772337 0.724466
O O2 0.048741 0.770198 0.699866
O O3 0.633037 0.994662 0.821855
O O4 0.791415 0.746278 0.030571
O O5 0.140131 0.289531 0.532106
O O6 0.309889 0.101392 0.805780
O O7 0.066210 0.136017 0.802076
O O8 0.500000 0.000000 0.500000
O O9 0.237355 0.608641 0.034864
O O10 0.250266 0.394754 0.190422
O O11 0.373382 0.421353 0.304864
O O12 0.638890 0.299792 0.005763
O O13 0.898353 0.146294 0.185019
O O14 0.857568 0.500628 0.361584
O O15 0.601471 0.296422 0.482233
O O16 0.000000 0.000000 0.500000
O O17 0.437806 0.218581 0.593219
#
# Coordination Sequence:
#
# PCOD9015075 Si02
#       8
#     2   2   2   2   2   2   2   2
#     4  11  25  42  65  95 139 179 225 276 341 402
#     4  12  22  40  70 101 135 175 225 288 335 397
#     4  10  21  41  71 101 134 172 224 287 343 399
#     4  10  22  42  70 100 134 180 228 276 343 402
#     4  12  24  40  67 108 135 169 229 288 340 398
#     4  11  23  43  69  95 134 191 230 268 333 416
#     4  11  22  39  71  97 131 180 231 277 336 405
#     4  11  22  42  67  93 131 186 227 270 335 414
#
# _framework density 22.391667999999999
#
# number of rings (size 3 to 8) (size 9 to 14) (size 15 to 20)
#    0.000    1.000    6.250    1.125    0.000    1.000 
#    0.000    1.875    5.500    0.000    0.000    0.000 
#    0.000    0.000    0.000    0.000    0.000    0.000 
#
# Total GULP energy -89170.258718 kJ/mol
# GULP energy per Si atom -5573.141170 kJ/mol
# Density = 2.234070 g / cm^3
# Si number density = 22.391668 Si / 1000 Ang^3
#
#
#
# Elastic Constant Matrix: (Units=GPa)
#
#
# Indices 1 2 3 4 5 6 
#
# 1 124.6199 35.3561 25.2105 12.6839 -21.0323 -34.6711
# 2 35.3561 92.6810 39.9244 -1.2978 -19.1454 -40.4696
# 3 25.2105 39.9244 89.5711 -7.4222 -12.6156 -21.5213
# 4 12.6839 -1.2978 -7.4222 37.8952 -12.2536 -8.0911
# 5 -21.0323 -19.1454 -12.6156 -12.2536 32.7125 7.5552
# 6 -34.6711 -40.4696 -21.5213 -8.0911 7.5552 32.1473
#
#
#
# Elastic Compliance Matrix: (Units=1/GPa)
#
#
# Indices 1 2 3 4 5 6 
#
# 1 0.012985 0.005049 -0.000009 0.002430 0.007791 0.019136
# 2 0.005049 0.033340 -0.001667 0.014400 0.016897 0.045954
# 3 -0.000009 -0.001667 0.015234 0.006470 0.005363 0.008458
# 4 0.002430 0.014400 0.006470 0.040503 0.020630 0.030426
# 5 0.007791 0.016897 0.005363 0.020630 0.049044 0.026931
# 6 0.019136 0.045954 0.008458 0.030426 0.026931 0.116585
#
#
# Mechanical properties :
#
#
# Convention : Reuss Voigt Hill
#
# Bulk Modulus (GPa) = 14.64029 56.42822 35.53426
# Shear Modulus (GPa) = 17.62351 34.30972 25.96662
#
# Velocity S-wave (km/s) = 2.80850 3.91865 3.40907
# Velocity P-wave (km/s) = 4.13151 6.76237 5.60353
#
# Compressibility (1/GPa) = 0.06830464
#
# Stress axis : x y z
#
# Youngs Moduli (GPa) = 77.01164 29.99444 65.64436
#
# Poissons Ratio (x) = -0.15146 0.00059
# Poissons Ratio (y) = -0.38887 0.10944
# Poissons Ratio (z) = 0.00069 0.05001
#
# Static dielectric constant tensor:
#      x y z
#    x 1.895600 -0.042210 0.006910 
#    y -0.042210 1.930110 0.005770 
#    z 0.006910 0.005770 1.983230 
# 
# From -- ./inp_files/261421.got.cif
#   From: 2010.05.17/outbox.cif.g08.bks.cpg/sg2_131_cif.got.tgz:261421.got - 2010.06.03 11:33:40.
