data_PCOD9015600
_publ_section_title
;
Structure prediction by ZEFSAII (Michael W. Deem and Ramdas Pophale) SiO2 
 PCOD9015600
Probable space group: P -1
;
_chemical_formula_sum "Si O2"
_cell_formula_units_Z 14
_cell_length_a 5.712313
_cell_length_b 17.641528
_cell_length_c 9.030859
_cell_angle_alpha 41.135348
_cell_angle_beta 98.541118
_cell_angle_gamma 88.729235
_cell_volume 579.341519
_symmetry_space_group_name_H-M "P -1"
_symmetry_group_IT_number 2
_symmetry_cell_setting 'triclinic'
loop_
_space_group_symop_operation_xyz
x,y,z
-x,-y,-z
loop_
_atom_site_type_symbol
_atom_site_label
_atom_site_fract_x
_atom_site_fract_y
_atom_site_fract_z
Si Si1 0.132363 0.070527 0.790531
Si Si2 0.700996 0.278227 0.328366
Si Si3 0.750784 0.958336 0.489289
Si Si4 0.299223 0.604533 0.393938
Si Si5 0.917302 0.462366 0.237742
Si Si6 0.029547 0.702405 0.938402
Si Si7 0.609548 0.739752 0.414723
O O1 0.257514 0.015473 0.728907
O O2 0.310246 0.139406 0.793123
O O3 0.926564 0.178072 0.550877
O O4 0.000000 0.000000 0.000000
O O5 0.729107 0.280617 0.152451
O O6 0.484976 0.246807 0.445795
O O7 0.738638 0.403796 0.208360
O O8 0.828779 0.819067 0.733963
O O9 0.500000 0.000000 0.500000
O O10 0.000000 0.000000 0.500000
O O11 0.500000 0.500000 0.500000
O O12 0.412131 0.704459 0.339847
O O13 0.176032 0.541052 0.600687
O O14 0.111647 0.665178 0.164987
O O15 0.173293 0.372832 0.396783
O O16 0.941849 0.593370 0.013016
#
# Coordination Sequence:
#
# PCOD9015600 Si02
#       7
#     2   2   2   2   2   2   2
#     4  10  24  49  76 104 143 200 264 314 386 454
#     4   9  22  42  66 104 142 186 246 303 380 455
#     4  11  29  55  77 112 156 199 269 332 388 453
#     4  11  23  42  66 110 152 191 242 298 380 462
#     4  10  21  42  64 104 145 183 243 299 372 467
#     4  11  23  44  73 103 146 198 246 307 390 445
#     4  10  22  43  71 101 151 186 242 311 367 471
#
# _framework density 24.165368000000001
#
# number of rings (size 3 to 8) (size 9 to 14) (size 15 to 20)
#    0.000    1.714    1.429    0.857    4.000    5.714 
#   10.286    0.000    0.000    0.000    0.000    0.000 
#    0.000    0.000    0.000    0.000    0.000    0.000 
#
# Total GULP energy -78272.763040 kJ/mol
# GULP energy per Si atom -5590.911646 kJ/mol
# Density = 2.411037 g / cm^3
# Si number density = 24.165368 Si / 1000 Ang^3
#
#
#
# Elastic Constant Matrix: (Units=GPa)
#
#
# Indices 1 2 3 4 5 6 
#
# 1 101.8383 53.3540 45.8316 -0.9778 -24.2372 -18.3633
# 2 53.3540 101.4519 61.0687 2.9135 -14.8737 -14.5181
# 3 45.8316 61.0687 131.9764 1.0466 -25.1361 -6.8565
# 4 -0.9778 2.9135 1.0466 45.3630 1.0020 -14.3446
# 5 -24.2372 -14.8737 -25.1361 1.0020 48.4116 2.6809
# 6 -18.3633 -14.5181 -6.8565 -14.3446 2.6809 65.9708
#
#
#
# Elastic Compliance Matrix: (Units=1/GPa)
#
#
# Indices 1 2 3 4 5 6 
#
# 1 0.015385 -0.006140 -0.001433 0.001577 0.004877 0.002927
# 2 -0.006140 0.016530 -0.005633 -0.000650 -0.000975 0.001242
# 3 -0.001433 -0.005633 0.011309 -0.000212 0.003464 -0.000650
# 4 0.001577 -0.000650 -0.000212 0.023864 -0.000318 0.005476
# 5 0.004877 -0.000975 0.003464 -0.000318 0.024579 0.000435
# 6 0.002927 0.001242 -0.000650 0.005476 0.000435 0.017352
#
#
# Mechanical properties :
#
#
# Convention : Reuss Voigt Hill
#
# Bulk Modulus (GPa) = 59.48026 72.86391 66.17209
# Shear Modulus (GPa) = 35.45273 43.61656 39.53464
#
# Velocity S-wave (km/s) = 3.83441 4.25304 4.04914
# Velocity P-wave (km/s) = 6.65364 7.37126 7.02162
#
# Compressibility (1/GPa) = 0.01681230
#
# Stress axis : x y z
#
# Youngs Moduli (GPa) = 64.99937 60.49740 88.42600
#
# Poissons Ratio (x) = 0.37143 0.12674
# Poissons Ratio (y) = 0.39907 0.49807
# Poissons Ratio (z) = 0.09316 0.34076
#
# Static dielectric constant tensor:
#      x y z
#    x 1.973030 0.023010 -0.034570 
#    y 0.023010 1.970790 -0.003890 
#    z -0.034570 -0.003890 1.878020 
# 
# From -- ./inp_files/94272.got.cif
#   From: 2010.05.17/outbox.cif.g08.bks.cpg/sg2_48_cif.got.tgz:94272.got - 2010.06.03 11:33:40.
