data_PCOD9015681
_publ_section_title
;
Structure prediction by ZEFSAII (Michael W. Deem and Ramdas Pophale) SiO2 
 PCOD9015681
Probable space group: P -1
;
_chemical_formula_sum "Si O2"
_cell_formula_units_Z 16
_cell_length_a 18.461677
_cell_length_b 9.806516
_cell_length_c 7.979815
_cell_angle_alpha 116.193987
_cell_angle_beta 104.184077
_cell_angle_gamma 127.866159
_cell_volume 701.170675
_symmetry_space_group_name_H-M "P -1"
_symmetry_group_IT_number 2
_symmetry_cell_setting 'triclinic'
loop_
_space_group_symop_operation_xyz
x,y,z
-x,-y,-z
loop_
_atom_site_type_symbol
_atom_site_label
_atom_site_fract_x
_atom_site_fract_y
_atom_site_fract_z
Si Si1 0.801611 0.804241 0.188394
Si Si2 0.738759 0.564375 0.375090
Si Si3 0.398050 0.186737 0.540001
Si Si4 0.201447 0.031895 0.174254
Si Si5 0.351566 0.184874 0.006819
Si Si6 0.571652 0.240348 0.548478
Si Si7 0.019422 0.180116 0.228691
Si Si8 0.569268 0.962926 0.189323
O O1 0.811168 0.749578 0.347087
O O2 0.738859 0.867563 0.200267
O O3 0.693349 0.523651 0.868224
O O4 0.930747 0.022302 0.261854
O O5 0.750314 0.722414 0.599286
O O6 0.828529 0.575249 0.493289
O O7 0.585872 0.280101 0.081197
O O8 0.247903 0.986499 0.311119
O O9 0.497415 0.498761 0.763489
O O10 0.461331 0.184525 0.430717
O O11 0.417381 0.125391 0.688069
O O12 0.290084 0.134188 0.120107
O O13 0.048112 0.795788 0.900990
O O14 0.354366 0.010451 0.887528
O O15 0.500000 0.000000 0.500000
O O16 0.614635 0.207786 0.401653
O O17 0.000000 0.000000 0.000000
#
# Coordination Sequence:
#
# PCOD9015681 Si02
#       8
#     2   2   2   2   2   2   2   2
#     4  10  18  34  58  80 105 135 181 219 259 310
#     4  11  18  31  54  80 107 132 179 218 255 306
#     4  10  17  30  50  74 107 131 174 215 263 310
#     4  10  20  31  50  75 108 138 171 220 261 305
#     4  10  18  30  50  79 107 135 171 218 267 309
#     4   9  18  32  50  82 113 133 164 218 273 314
#     4   9  21  35  51  80 106 140 177 222 258 298
#     4  11  19  31  53  84 108 134 170 216 274 314
#
# _framework density 22.818981000000001
#
# number of rings (size 3 to 8) (size 9 to 14) (size 15 to 20)
#    0.000    2.000    5.000    1.875    0.000    0.000 
#    0.000    0.625    0.000    0.750    9.750   11.375 
#    0.000    0.000    0.000    0.000    0.000    0.000 
#
# Total GULP energy -89331.075940 kJ/mol
# GULP energy per Si atom -5583.192246 kJ/mol
# Density = 2.276704 g / cm^3
# Si number density = 22.818981 Si / 1000 Ang^3
#
#
#
# Elastic Constant Matrix: (Units=GPa)
#
#
# Indices 1 2 3 4 5 6 
#
# 1 177.3776 28.7263 82.3100 -3.3437 16.3840 -1.2913
# 2 28.7263 49.5892 28.5934 -10.3067 8.4689 5.9405
# 3 82.3100 28.5934 86.3335 -22.3043 17.6399 -11.0939
# 4 -3.3437 -10.3067 -22.3043 28.1438 -7.4104 -3.2799
# 5 16.3840 8.4689 17.6399 -7.4104 62.0136 -10.5476
# 6 -1.2913 5.9405 -11.0939 -3.2799 -10.5476 34.4058
#
#
#
# Elastic Compliance Matrix: (Units=1/GPa)
#
#
# Indices 1 2 3 4 5 6 
#
# 1 0.012912 0.000251 -0.016079 -0.012227 -0.001412 -0.006342
# 2 0.000251 0.027150 -0.009645 0.000717 -0.002382 -0.008450
# 3 -0.016079 -0.009645 0.039300 0.027767 0.000517 0.016539
# 4 -0.012227 0.000717 0.027767 0.059476 0.004990 0.015570
# 5 -0.001412 -0.002382 0.000517 0.004990 0.018403 0.006642
# 6 -0.006342 -0.008450 0.016539 0.015570 0.006642 0.039139
#
#
# Mechanical properties :
#
#
# Convention : Reuss Voigt Hill
#
# Bulk Modulus (GPa) = 35.19155 65.83997 50.51576
# Shear Modulus (GPa) = 19.47065 36.49069 27.98067
#
# Velocity S-wave (km/s) = 2.92424 4.00326 3.50551
# Velocity P-wave (km/s) = 5.18238 7.09112 6.21052
#
# Compressibility (1/GPa) = 0.02841591
#
# Stress axis : x y z
#
# Youngs Moduli (GPa) = 77.44790 36.83269 25.44537
#
# Poissons Ratio (x) = -0.00924 0.40913
# Poissons Ratio (y) = -0.01942 0.24542
# Poissons Ratio (z) = 1.24525 0.35525
#
# Static dielectric constant tensor:
#      x y z
#    x 1.893090 0.003150 -0.010480 
#    y 0.003150 1.906970 -0.087740 
#    z -0.010480 -0.087740 1.892700 
# 
# From -- ./inp_files/258596.got.cif
#   From: 2010.05.17/outbox.cif.g08.bks.cpg/sg2_130_cif.got.tgz:258596.got - 2010.06.03 11:33:40.
