data_PCOD9015864
_publ_section_title
;
Structure prediction by ZEFSAII (Michael W. Deem and Ramdas Pophale) SiO2 
 PCOD9015864
Probable space group: P -1
;
_chemical_formula_sum "Si O2"
_cell_formula_units_Z 16
_cell_length_a 14.121201
_cell_length_b 11.388584
_cell_length_c 14.357732
_cell_angle_alpha 124.116138
_cell_angle_beta 36.616924
_cell_angle_gamma 149.319241
_cell_volume 636.041501
_symmetry_space_group_name_H-M "P -1"
_symmetry_group_IT_number 2
_symmetry_cell_setting 'triclinic'
loop_
_space_group_symop_operation_xyz
x,y,z
-x,-y,-z
loop_
_atom_site_type_symbol
_atom_site_label
_atom_site_fract_x
_atom_site_fract_y
_atom_site_fract_z
Si Si1 0.180441 0.112117 0.528294
Si Si2 0.090925 0.350698 0.397642
Si Si3 0.814479 0.277914 0.409326
Si Si4 0.819857 0.129965 0.045157
Si Si5 0.327534 0.192967 0.827903
Si Si6 0.087159 0.562649 0.129321
Si Si7 0.712384 0.991810 0.866480
Si Si8 0.602029 0.620143 0.334364
O O1 0.344648 0.317562 0.409579
O O2 0.369816 0.278213 0.545017
O O3 0.889764 0.981294 0.717433
O O4 0.099278 0.888180 0.491701
O O5 0.148351 0.543878 0.487799
O O6 0.410617 0.525851 0.207680
O O7 0.937964 0.259091 0.378910
O O8 0.996586 0.428071 0.238656
O O9 0.500000 0.000000 0.500000
O O10 0.891307 0.343744 0.109534
O O11 0.682955 0.954818 0.165485
O O12 0.644559 0.980241 0.022745
O O13 0.115051 0.264866 0.853314
O O14 0.410175 0.273643 0.690318
O O15 0.000000 0.000000 0.000000
O O16 0.083846 0.729576 0.204848
O O17 0.418823 0.771828 0.945247
#
# Coordination Sequence:
#
# PCOD9015864 Si02
#       8
#     2   2   2   2   2   2   2   2
#     4  10  23  42  70 101 139 179 234 293 346 425
#     4  11  26  45  72 106 138 189 235 287 357 419
#     4  11  27  48  70 102 144 185 236 292 349 422
#     4  10  21  42  65  94 134 181 223 283 341 409
#     4  10  22  41  67 101 139 177 228 286 350 415
#     4  11  24  42  69  93 132 187 229 278 349 414
#     4  10  24  43  63 102 135 173 233 285 340 412
#     4   9  22  41  65 103 139 178 226 286 358 402
#
# _framework density 25.155588999999999
#
# number of rings (size 3 to 8) (size 9 to 14) (size 15 to 20)
#    0.000    1.750    0.000    1.875    8.750    5.500 
#    0.000    2.500    0.000    0.000    0.000    0.000 
#    0.000    0.000    0.000    0.000    0.000    0.000 
#
# Total GULP energy -89496.377564 kJ/mol
# GULP energy per Si atom -5593.523598 kJ/mol
# Density = 2.509833 g / cm^3
# Si number density = 25.155589 Si / 1000 Ang^3
#
#
#
# Elastic Constant Matrix: (Units=GPa)
#
#
# Indices 1 2 3 4 5 6 
#
# 1 113.8930 40.3488 10.9120 -13.2220 18.2039 12.4132
# 2 40.3488 147.0258 36.3590 -28.1583 13.6547 -1.7068
# 3 10.9120 36.3590 56.1404 -19.8807 12.8220 0.9102
# 4 -13.2220 -28.1583 -19.8807 34.7673 0.8430 9.3840
# 5 18.2039 13.6547 12.8220 0.8430 43.7035 -11.0844
# 6 12.4132 -1.7068 0.9102 9.3840 -11.0844 40.6416
#
#
#
# Elastic Compliance Matrix: (Units=1/GPa)
#
#
# Indices 1 2 3 4 5 6 
#
# 1 0.012015 -0.002213 0.003308 0.006844 -0.007294 -0.007406
# 2 -0.002213 0.009314 -0.003709 0.004663 -0.001044 -0.000211
# 3 0.003308 -0.003709 0.028281 0.017058 -0.011066 -0.008756
# 4 0.006844 0.004663 0.017058 0.050081 -0.014813 -0.017880
# 5 -0.007294 -0.001044 -0.011066 -0.014813 0.033586 0.015012
# 6 -0.007406 -0.000211 -0.008756 -0.017880 0.015012 0.035277
#
#
# Mechanical properties :
#
#
# Convention : Reuss Voigt Hill
#
# Bulk Modulus (GPa) = 22.53181 54.69987 38.61584
# Shear Modulus (GPa) = 26.51447 39.11845 32.81646
#
# Velocity S-wave (km/s) = 3.25009 3.94770 3.61576
# Velocity P-wave (km/s) = 4.80214 6.52464 5.72850
#
# Compressibility (1/GPa) = 0.04438170
#
# Stress axis : x y z
#
# Youngs Moduli (GPa) = 83.23028 107.37067 35.35890
#
# Poissons Ratio (x) = 0.23761 -0.11695
# Poissons Ratio (y) = 0.18419 0.13113
# Poissons Ratio (z) = -0.27529 0.39819
#
# Static dielectric constant tensor:
#      x y z
#    x 1.970180 0.009730 -0.019020 
#    y 0.009730 1.969290 0.031770 
#    z -0.019020 0.031770 2.038130 
# 
# From -- ./inp_files/532600.got.cif
#   From: 2010.05.17/outbox.cif.g08.bks.cpg/sg2_267_cif.got.tgz:532600.got - 2010.06.03 11:33:40.
