data_PCOD9015501
_publ_section_title
;
Structure prediction by ZEFSAII (Michael W. Deem and Ramdas Pophale) SiO2 
 PCOD9015501
Probable space group: P -1
;
_chemical_formula_sum "Si O2"
_cell_formula_units_Z 16
_cell_length_a 6.044501
_cell_length_b 8.302845
_cell_length_c 13.940663
_cell_angle_alpha 92.156244
_cell_angle_beta 78.004573
_cell_angle_gamma 106.984646
_cell_volume 654.307900
_symmetry_space_group_name_H-M "P -1"
_symmetry_group_IT_number 2
_symmetry_cell_setting 'triclinic'
loop_
_space_group_symop_operation_xyz
x,y,z
-x,-y,-z
loop_
_atom_site_type_symbol
_atom_site_label
_atom_site_fract_x
_atom_site_fract_y
_atom_site_fract_z
Si Si1 0.828424 0.861191 0.633860
Si Si2 0.649606 0.230971 0.092109
Si Si3 0.506549 0.567802 0.134646
Si Si4 0.271412 0.888809 0.458654
Si Si5 0.557087 0.689582 0.477610
Si Si6 0.699742 0.139469 0.883616
Si Si7 0.857862 0.662365 0.281023
Si Si8 0.008515 0.351271 0.230595
O O1 0.620471 0.760334 0.580350
O O2 0.057540 0.879806 0.547697
O O3 0.883383 0.770516 0.719345
O O4 0.761202 0.035085 0.638839
O O5 0.610892 0.417132 0.081411
O O6 0.802952 0.253263 0.175649
O O7 0.424188 0.062202 0.119927
O O8 0.781809 0.183651 0.987202
O O9 0.496167 0.754916 0.107313
O O10 0.634839 0.604010 0.227228
O O11 0.230191 0.467020 0.155752
O O12 0.331188 0.716523 0.445305
O O13 0.500000 0.000000 0.500000
O O14 0.500000 0.500000 0.500000
O O15 0.771118 0.742667 0.383442
O O16 0.925266 0.219169 0.797250
O O17 0.919891 0.490200 0.299886
#
# Coordination Sequence:
#
# PCOD9015501 Si02
#       8
#     2   2   2   2   2   2   2   2
#     4  10  21  42  63  91 130 174 218 272 325 399
#     4  10  23  44  70 100 130 185 225 282 354 403
#     4  10  22  42  65 101 137 176 222 284 343 408
#     4   9  21  40  58  90 124 168 220 265 321 387
#     4  11  22  39  68  95 131 181 219 270 331 398
#     4  10  23  45  69  98 139 172 234 285 338 420
#     4  10  23  41  64 103 136 177 228 282 338 405
#     4  10  22  41  67  98 134 176 228 276 344 409
#
# _framework density 24.453319
#
# number of rings (size 3 to 8) (size 9 to 14) (size 15 to 20)
#    0.000    2.000    0.000    1.875    0.000   13.500 
#   18.000    2.500    0.000    0.000    0.000    0.000 
#    0.000    0.000    0.000    0.000    0.000    0.000 
#
# Total GULP energy -89192.842757 kJ/mol
# GULP energy per Si atom -5574.552672 kJ/mol
# Density = 2.439766 g / cm^3
# Si number density = 24.453319 Si / 1000 Ang^3
#
#
#
# Elastic Constant Matrix: (Units=GPa)
#
#
# Indices 1 2 3 4 5 6 
#
# 1 55.2288 28.5227 0.9858 -4.2806 10.1575 -29.2070
# 2 28.5227 92.7943 23.1529 -8.2068 9.4197 -17.3153
# 3 0.9858 23.1529 68.2953 -1.7212 -1.8797 -12.2437
# 4 -4.2806 -8.2068 -1.7212 39.0795 3.6728 12.1160
# 5 10.1575 9.4197 -1.8797 3.6728 25.4028 -10.8762
# 6 -29.2070 -17.3153 -12.2437 12.1160 -10.8762 51.6685
#
#
#
# Elastic Compliance Matrix: (Units=1/GPa)
#
#
# Indices 1 2 3 4 5 6 
#
# 1 0.030697 -0.007732 0.004978 -0.002936 -0.001643 0.016283
# 2 -0.007732 0.014760 -0.005344 0.003131 -0.004220 -0.002313
# 3 0.004978 -0.005344 0.017647 -0.002296 0.004493 0.006689
# 4 -0.002936 0.003131 -0.002296 0.029732 -0.008721 -0.009962
# 5 -0.001643 -0.004220 0.004493 -0.008721 0.047819 0.010833
# 6 0.016283 -0.002313 0.006689 -0.009962 0.010833 0.033985
#
#
# Mechanical properties :
#
#
# Convention : Reuss Voigt Hill
#
# Bulk Modulus (GPa) = 21.31839 35.73789 28.52814
# Shear Modulus (GPa) = 24.21639 34.14060 29.17849
#
# Velocity S-wave (km/s) = 3.15033 3.74057 3.45807
# Velocity P-wave (km/s) = 4.68719 5.77081 5.25700
#
# Compressibility (1/GPa) = 0.04690786
#
# Stress axis : x y z
#
# Youngs Moduli (GPa) = 32.57698 67.74954 56.66636
#
# Poissons Ratio (x) = 0.52384 -0.28209
# Poissons Ratio (y) = 0.25188 0.30284
# Poissons Ratio (z) = -0.16217 0.36207
#
# Static dielectric constant tensor:
#      x y z
#    x 2.290300 -0.539480 -0.280460 
#    y -0.539480 2.975210 0.439090 
#    z -0.280460 0.439090 2.246050 
# 
# From -- ./inp_files/480530.got.cif
#   From: 2010.05.17/outbox.cif.g08.bks.cpg/sg2_241_cif.got.tgz:480530.got - 2010.06.03 11:33:40.
