data_PCOD9015949
_publ_section_title
;
Structure prediction by ZEFSAII (Michael W. Deem and Ramdas Pophale) SiO2 
 PCOD9015949
Probable space group: P -1
;
_chemical_formula_sum "Si O2"
_cell_formula_units_Z 14
_cell_length_a 12.412510
_cell_length_b 26.459830
_cell_length_c 8.800816
_cell_angle_alpha 153.551006
_cell_angle_beta 36.529111
_cell_angle_gamma 151.081419
_cell_volume 619.900200
_symmetry_space_group_name_H-M "P -1"
_symmetry_group_IT_number 2
_symmetry_cell_setting 'triclinic'
loop_
_space_group_symop_operation_xyz
x,y,z
-x,-y,-z
loop_
_atom_site_type_symbol
_atom_site_label
_atom_site_fract_x
_atom_site_fract_y
_atom_site_fract_z
Si Si1 0.991174 0.461316 0.082363
Si Si2 0.661252 0.570550 0.239341
Si Si3 0.821912 0.625773 0.858567
Si Si4 0.706608 0.154044 0.121580
Si Si5 0.352793 0.813893 0.414193
Si Si6 0.545308 0.930449 0.118923
Si Si7 0.248916 0.137419 0.062591
O O1 0.919282 0.536587 0.474882
O O2 0.201404 0.468301 0.922195
O O3 0.000000 0.500000 0.000000
O O4 0.780407 0.297899 0.867983
O O5 0.397699 0.444560 0.187009
O O6 0.712509 0.717719 0.632121
O O7 0.750310 0.604405 0.056523
O O8 0.033151 0.785939 0.017691
O O9 0.699397 0.241858 0.504772
O O10 0.643059 0.163258 0.045803
O O11 0.500000 0.000000 0.000000
O O12 0.287465 0.922695 0.764631
O O13 0.613960 0.885595 0.279149
O O14 0.500000 0.000000 0.500000
O O15 0.638335 0.851035 0.871485
O O16 0.000000 0.000000 0.000000
#
# Coordination Sequence:
#
# PCOD9015949 Si02
#       7
#     2   2   2   2   2   2   2
#     4  12  24  46  70  99 139 187 229 285 353 418
#     4  11  27  44  69 104 141 183 239 289 342 417
#     4  11  25  46  69 102 140 184 235 287 350 409
#     4  10  22  41  70 100 134 180 233 283 352 418
#     4  10  21  42  66 100 135 185 229 279 356 409
#     4   9  21  39  69  95 130 182 230 281 348 410
#     4  11  23  41  66 104 137 180 239 290 342 412
#
# _framework density 22.584281000000001
#
# number of rings (size 3 to 8) (size 9 to 14) (size 15 to 20)
#    0.000    1.429    2.857    1.286   10.000    2.857 
#    0.000    0.714    0.000    0.000    0.000    0.000 
#    0.000    0.000    0.000    0.000    0.000    0.000 
#
# Total GULP energy -77968.405159 kJ/mol
# GULP energy per Si atom -5569.171797 kJ/mol
# Density = 2.253288 g / cm^3
# Si number density = 22.584281 Si / 1000 Ang^3
#
#
#
# Elastic Constant Matrix: (Units=GPa)
#
#
# Indices 1 2 3 4 5 6 
#
# 1 133.3640 46.6035 29.2604 -10.0574 -2.1629 21.5669
# 2 46.6035 143.9648 -1.4733 -3.4743 -0.7699 33.4963
# 3 29.2604 -1.4733 52.8953 -2.7951 -2.0151 2.1825
# 4 -10.0574 -3.4743 -2.7951 29.9255 0.1540 6.2570
# 5 -2.1629 -0.7699 -2.0151 0.1540 38.4636 -0.4522
# 6 21.5669 33.4963 2.1825 6.2570 -0.4522 32.5038
#
#
#
# Elastic Compliance Matrix: (Units=1/GPa)
#
#
# Indices 1 2 3 4 5 6 
#
# 1 0.010599 -0.002197 -0.005501 0.003867 0.000188 -0.005141
# 2 -0.002197 0.009928 0.002018 0.002568 0.000060 -0.009403
# 3 -0.005501 0.002018 0.022060 0.000438 0.000885 0.000017
# 4 0.003867 0.002568 0.000438 0.037667 -0.000006 -0.012493
# 5 0.000188 0.000060 0.000885 -0.000006 0.026058 0.000118
# 6 -0.005141 -0.009403 0.000017 -0.012493 0.000118 0.046272
#
#
# Mechanical properties :
#
#
# Convention : Reuss Voigt Hill
#
# Bulk Modulus (GPa) = 32.02267 53.22281 42.62274
# Shear Modulus (GPa) = 28.67741 37.23414 32.95577
#
# Velocity S-wave (km/s) = 3.56728 4.06479 3.82414
# Velocity P-wave (km/s) = 5.58367 6.75630 6.19778
#
# Compressibility (1/GPa) = 0.03122788
#
# Stress axis : x y z
#
# Youngs Moduli (GPa) = 94.34971 100.72620 45.33005
#
# Poissons Ratio (x) = 0.22127 0.24934
# Poissons Ratio (y) = 0.20726 -0.09146
# Poissons Ratio (z) = 0.51898 -0.20323
#
# Static dielectric constant tensor:
#      x y z
#    x 1.882850 -0.023340 0.031550 
#    y -0.023340 2.055480 0.126020 
#    z 0.031550 0.126020 1.939760 
# 
# From -- ./inp_files/285726.got.cif
#   From: 2010.05.17/outbox.cif.g08.bks.cpg/sg2_143_cif.got.tgz:285726.got - 2010.06.03 11:33:40.
