data_PCOD9015575
_publ_section_title
;
Structure prediction by ZEFSAII (Michael W. Deem and Ramdas Pophale) SiO2 
 PCOD9015575
Probable space group: P -1
;
_chemical_formula_sum "Si O2"
_cell_formula_units_Z 16
_cell_length_a 9.052896
_cell_length_b 11.375147
_cell_length_c 14.719871
_cell_angle_alpha 135.560300
_cell_angle_beta 74.678889
_cell_angle_gamma 129.614108
_cell_volume 764.601373
_symmetry_space_group_name_H-M "P -1"
_symmetry_group_IT_number 2
_symmetry_cell_setting 'triclinic'
loop_
_space_group_symop_operation_xyz
x,y,z
-x,-y,-z
loop_
_atom_site_type_symbol
_atom_site_label
_atom_site_fract_x
_atom_site_fract_y
_atom_site_fract_z
Si Si1 0.558218 0.862610 0.450630
Si Si2 0.720569 0.650997 0.097550
Si Si3 0.568812 0.089177 0.934622
Si Si4 0.076233 0.055906 0.622751
Si Si5 0.167612 0.374080 0.188585
Si Si6 0.710369 0.990078 0.695557
Si Si7 0.205441 0.051626 0.892361
Si Si8 0.043741 0.491693 0.107447
O O1 0.774341 0.992023 0.435700
O O2 0.386210 0.601349 0.308872
O O3 0.500000 0.000000 0.500000
O O4 0.578231 0.869585 0.560084
O O5 0.760446 0.691408 0.220783
O O6 0.500000 0.500000 0.000000
O O7 0.804560 0.889474 0.176254
O O8 0.844226 0.580206 0.003171
O O9 0.591060 0.946498 0.783377
O O10 0.409359 0.101038 0.918721
O O11 0.803234 0.322539 0.033040
O O12 0.500000 0.000000 0.000000
O O13 0.870265 0.952293 0.654125
O O14 0.000000 0.000000 0.500000
O O15 0.194548 0.218227 0.043350
O O16 0.075731 0.453552 0.183788
O O17 0.993753 0.203836 0.195610
O O18 0.843483 0.253922 0.794151
#
# Coordination Sequence:
#
# PCOD9015575 Si02
#       8
#     2   2   2   2   2   2   2   2
#     4  11  23  41  67  93 132 171 219 269 325 398
#     4  11  22  38  66  99 129 167 224 279 329 388
#     4  12  24  40  65  96 135 173 217 277 335 391
#     4  10  23  41  62  95 134 171 212 276 337 394
#     4  10  21  42  63  97 130 170 219 270 335 394
#     4  11  24  40  65  96 133 172 220 271 329 397
#     4  10  23  38  66  95 129 171 217 278 334 385
#     4  11  21  38  65  99 130 166 219 278 328 388
#
# _framework density 20.925936
#
# number of rings (size 3 to 8) (size 9 to 14) (size 15 to 20)
#    0.000    1.250    3.750    2.625    5.250    0.000 
#    0.000    0.625    5.500    2.250    0.000    0.000 
#    0.000    0.000    0.000    0.000    0.000    0.000 
#
# Total GULP energy -89117.573581 kJ/mol
# GULP energy per Si atom -5569.848349 kJ/mol
# Density = 2.087831 g / cm^3
# Si number density = 20.925936 Si / 1000 Ang^3
#
#
#
# Elastic Constant Matrix: (Units=GPa)
#
#
# Indices 1 2 3 4 5 6 
#
# 1 155.3234 32.8142 27.0028 -3.7135 -4.5892 14.6913
# 2 32.8142 82.9306 22.4533 -3.6517 -0.9425 -0.3758
# 3 27.0028 22.4533 77.0632 -10.2532 14.4864 -1.9631
# 4 -3.7135 -3.6517 -10.2532 28.4371 7.2722 0.7633
# 5 -4.5892 -0.9425 14.4864 7.2722 38.0922 -5.2335
# 6 14.6913 -0.3758 -1.9631 0.7633 -5.2335 27.3413
#
#
#
# Elastic Compliance Matrix: (Units=1/GPa)
#
#
# Indices 1 2 3 4 5 6 
#
# 1 0.007797 -0.002451 -0.002421 -0.000392 0.001306 -0.004136
# 2 -0.002451 0.013997 -0.003526 -0.000260 0.001659 0.001581
# 3 -0.002421 -0.003526 0.017465 0.007655 -0.008388 0.000687
# 4 -0.000392 -0.000260 0.007655 0.040743 -0.011087 -0.002503
# 5 0.001306 0.001659 -0.008388 -0.011087 0.032478 0.005245
# 6 -0.004136 0.001581 0.000687 -0.002503 0.005245 0.039942
#
#
# Mechanical properties :
#
#
# Convention : Reuss Voigt Hill
#
# Bulk Modulus (GPa) = 44.51636 53.31752 48.91694
# Shear Modulus (GPa) = 28.29572 34.31058 31.30315
#
# Velocity S-wave (km/s) = 3.68120 4.05361 3.87189
# Velocity P-wave (km/s) = 6.27597 6.88793 6.58905
#
# Compressibility (1/GPa) = 0.02246365
#
# Stress axis : x y z
#
# Youngs Moduli (GPa) = 128.24893 71.44298 57.25849
#
# Poissons Ratio (x) = 0.17510 0.13863
# Poissons Ratio (y) = 0.31433 0.20187
# Poissons Ratio (z) = 0.31051 0.25188
#
# Static dielectric constant tensor:
#      x y z
#    x 1.773430 0.004070 0.013400 
#    y 0.004070 1.821500 -0.030530 
#    z 0.013400 -0.030530 1.813140 
# 
# From -- ./inp_files/306792.got.cif
#   From: 2010.05.17/outbox.cif.g08.bks.cpg/sg2_154_cif.got.tgz:306792.got - 2010.06.03 11:33:40.
