data_PCOD9015822
_publ_section_title
;
Structure prediction by ZEFSAII (Michael W. Deem and Ramdas Pophale) SiO2 
 PCOD9015822
Probable space group: P -1
;
_chemical_formula_sum "Si O2"
_cell_formula_units_Z 14
_cell_length_a 9.263016
_cell_length_b 11.447279
_cell_length_c 15.795889
_cell_angle_alpha 144.720944
_cell_angle_beta 102.717172
_cell_angle_gamma 103.209556
_cell_volume 650.349008
_symmetry_space_group_name_H-M "P -1"
_symmetry_group_IT_number 2
_symmetry_cell_setting 'triclinic'
loop_
_space_group_symop_operation_xyz
x,y,z
-x,-y,-z
loop_
_atom_site_type_symbol
_atom_site_label
_atom_site_fract_x
_atom_site_fract_y
_atom_site_fract_z
Si Si1 0.227651 0.394491 0.524893
Si Si2 0.895229 0.269932 0.513604
Si Si3 0.527994 0.073440 0.235353
Si Si4 0.496354 0.652412 0.881292
Si Si5 0.188031 0.273072 0.776346
Si Si6 0.971768 0.474710 0.139328
Si Si7 0.841945 0.715617 0.036117
O O1 0.370177 0.615560 0.597088
O O2 0.378681 0.503665 0.689690
O O3 0.068208 0.417605 0.548523
O O4 0.069998 0.053327 0.280886
O O5 0.673735 0.123464 0.357838
O O6 0.971721 0.475663 0.724612
O O7 0.883648 0.028429 0.403753
O O8 0.543232 0.933439 0.074568
O O9 0.278439 0.833248 0.085255
O O10 0.340677 0.444392 0.816992
O O11 0.704700 0.720690 0.959413
O O12 0.013486 0.278628 0.744620
O O13 0.277954 0.407736 0.961474
O O14 0.118188 0.466310 0.101954
#
# Coordination Sequence:
#
# PCOD9015822 Si02
#       7
#     2   2   2   2   2   2   2
#     4  11  23  40  67  93 121 163 216 253 297 369
#     4  11  22  39  69  91 123 162 212 255 303 363
#     4  11  23  40  67  93 121 163 216 253 297 369
#     4  11  22  39  69  91 123 162 212 255 303 363
#     4  10  21  42  65  92 124 160 212 256 297 372
#     4  11  25  40  61  95 131 162 198 257 319 364
#     4  11  25  40  61  95 131 162 198 257 319 364
#
# _framework density 21.526903000000001
#
# number of rings (size 3 to 8) (size 9 to 14) (size 15 to 20)
#    0.000    1.143    5.714    2.143    4.000    1.714 
#    0.000    2.143    0.000    0.000    0.000    0.000 
#    0.000    0.000    0.000    0.000    0.000    0.000 
#
# Total GULP energy -78220.163566 kJ/mol
# GULP energy per Si atom -5587.154540 kJ/mol
# Density = 2.147791 g / cm^3
# Si number density = 21.526903 Si / 1000 Ang^3
#
#
#
# Elastic Constant Matrix: (Units=GPa)
#
#
# Indices 1 2 3 4 5 6 
#
# 1 73.3700 17.6036 25.1844 -15.5226 -4.9311 -15.4835
# 2 17.6036 62.2810 33.3944 6.5220 0.0800 -6.8837
# 3 25.1844 33.3944 71.0017 -15.6160 9.5029 -9.9837
# 4 -15.5226 6.5220 -15.6160 45.4911 -3.6091 14.7232
# 5 -4.9311 0.0800 9.5029 -3.6091 21.1110 -1.3603
# 6 -15.4835 -6.8837 -9.9837 14.7232 -1.3603 19.3560
#
#
#
# Elastic Compliance Matrix: (Units=1/GPa)
#
#
# Indices 1 2 3 4 5 6 
#
# 1 0.019036 -0.001728 -0.004970 0.002091 0.007757 0.011004
# 2 -0.001728 0.026129 -0.013404 -0.011972 0.004154 0.010394
# 3 -0.004970 -0.013404 0.025150 0.009103 -0.011099 -0.003475
# 4 0.002091 -0.011972 0.009103 0.035694 0.000929 -0.024975
# 5 0.007757 0.004154 -0.011099 0.000929 0.054648 0.005092
# 6 0.011004 0.010394 -0.003475 -0.024975 0.005092 0.081725
#
#
# Mechanical properties :
#
#
# Convention : Reuss Voigt Hill
#
# Bulk Modulus (GPa) = 33.21040 39.89084 36.55062
# Shear Modulus (GPa) = 17.08680 25.88964 21.48822
#
# Velocity S-wave (km/s) = 2.82040 3.47171 3.16286
# Velocity P-wave (km/s) = 5.10559 5.88568 5.50946
#
# Compressibility (1/GPa) = 0.03011105
#
# Stress axis : x y z
#
# Youngs Moduli (GPa) = 52.53146 38.27202 39.76097
#
# Poissons Ratio (x) = 0.06615 0.19762
# Poissons Ratio (y) = 0.09079 0.53294
# Poissons Ratio (z) = 0.26110 0.51298
#
# Static dielectric constant tensor:
#      x y z
#    x 1.763150 0.008420 0.022360 
#    y 0.008420 1.795320 0.024950 
#    z 0.022360 0.024950 1.813360 
# 
# From -- ./inp_files/445861.got.cif
#   From: 2010.05.17/outbox.cif.g08.bks.cpg/sg2_223_cif.got.tgz:445861.got - 2010.06.03 11:33:40.
