data_PCOD9015010
_publ_section_title
;
Structure prediction by ZEFSAII (Michael W. Deem and Ramdas Pophale) SiO2 
 PCOD9015010
Probable space group: P -1
;
_chemical_formula_sum "Si O2"
_cell_formula_units_Z 14
_cell_length_a 17.249269
_cell_length_b 8.991645
_cell_length_c 11.091777
_cell_angle_alpha 42.889622
_cell_angle_beta 150.106583
_cell_angle_gamma 127.202089
_cell_volume 581.156759
_symmetry_space_group_name_H-M "P -1"
_symmetry_group_IT_number 2
_symmetry_cell_setting 'triclinic'
loop_
_space_group_symop_operation_xyz
x,y,z
-x,-y,-z
loop_
_atom_site_type_symbol
_atom_site_label
_atom_site_fract_x
_atom_site_fract_y
_atom_site_fract_z
Si Si1 0.821188 0.100913 0.698202
Si Si2 0.543321 0.815121 0.482787
Si Si3 0.596455 0.619914 0.430499
Si Si4 0.229595 0.070726 0.934158
Si Si5 0.786736 0.566354 0.487855
Si Si6 0.071529 0.724624 0.496399
Si Si7 0.136107 0.674977 0.890566
O O1 0.784399 0.307266 0.615222
O O2 0.809904 0.200822 0.487283
O O3 0.703136 0.916312 0.665395
O O4 0.000000 0.000000 0.000000
O O5 0.526855 0.805463 0.318901
O O6 0.522530 0.565739 0.640546
O O7 0.398701 0.960398 0.260937
O O8 0.672267 0.665509 0.378584
O O9 0.739042 0.497380 0.774182
O O10 0.251115 0.302973 0.764062
O O11 0.084249 0.104589 0.807924
O O12 0.167206 0.909397 0.846062
O O13 0.964616 0.609226 0.731729
O O14 0.140560 0.692347 0.742180
O O15 0.000000 0.500000 0.500000
#
# Coordination Sequence:
#
# PCOD9015010 Si02
#       7
#     2   2   2   2   2   2   2
#     4  12  27  43  67  98 129 174 217 264 328 391
#     4  10  25  45  62  95 132 174 218 261 331 380
#     4  10  23  44  65  95 132 169 219 270 317 378
#     4  10  23  43  66  99 132 170 215 265 326 381
#     4  11  22  41  65 101 130 168 218 266 321 380
#     4  11  22  44  66  98 132 169 215 264 321 388
#     4  10  21  41  70  96 129 170 215 268 317 381
#
# _framework density 24.089886
#
# number of rings (size 3 to 8) (size 9 to 14) (size 15 to 20)
#    0.000    1.429    2.857    3.000    8.000    1.714 
#    5.143    0.000    0.000    0.000    0.000    0.000 
#    0.000    0.000    0.000    0.000    0.000    0.000 
#
# Total GULP energy -78338.422466 kJ/mol
# GULP energy per Si atom -5595.601605 kJ/mol
# Density = 2.403506 g / cm^3
# Si number density = 24.089886 Si / 1000 Ang^3
#
#
#
# Elastic Constant Matrix: (Units=GPa)
#
#
# Indices 1 2 3 4 5 6 
#
# 1 122.1788 0.6700 14.2386 8.7486 6.3481 4.6450
# 2 0.6700 119.8690 32.3938 20.9941 5.8674 4.7860
# 3 14.2386 32.3938 57.3719 4.1582 19.7552 -0.7584
# 4 8.7486 20.9941 4.1582 30.6873 0.3888 13.7563
# 5 6.3481 5.8674 19.7552 0.3888 34.0772 0.9311
# 6 4.6450 4.7860 -0.7584 13.7563 0.9311 39.5718
#
#
#
# Elastic Compliance Matrix: (Units=1/GPa)
#
#
# Indices 1 2 3 4 5 6 
#
# 1 0.008696 0.001143 -0.002485 -0.002822 -0.000338 -0.000218
# 2 0.001143 0.011376 -0.006762 -0.007654 0.001809 0.000979
# 3 -0.002485 -0.006762 0.026556 0.001232 -0.013823 0.001515
# 4 -0.002822 -0.007654 0.001232 0.044878 0.001009 -0.014344
# 5 -0.000338 0.001809 -0.013823 0.001009 0.037144 -0.001669
# 6 -0.000218 0.000979 0.001515 -0.014344 -0.001669 0.030232
#
#
# Mechanical properties :
#
#
# Convention : Reuss Voigt Hill
#
# Bulk Modulus (GPa) = 32.87543 43.78049 38.32796
# Shear Modulus (GPa) = 26.99323 37.67508 32.33416
#
# Velocity S-wave (km/s) = 3.35105 3.95896 3.66762
# Velocity P-wave (km/s) = 5.35251 6.25388 5.82067
#
# Compressibility (1/GPa) = 0.03041785
#
# Stress axis : x y z
#
# Youngs Moduli (GPa) = 114.99541 87.90120 37.65689
#
# Poissons Ratio (x) = -0.10043 0.09359
# Poissons Ratio (y) = -0.13139 0.25465
# Poissons Ratio (z) = 0.28580 0.59441
#
# Static dielectric constant tensor:
#      x y z
#    x 1.982520 -0.030080 -0.003580 
#    y -0.030080 1.871340 -0.021090 
#    z -0.003580 -0.021090 1.969790 
# 
# From -- ./inp_files/190878.got.cif
#   From: 2010.05.17/outbox.cif.g08.bks.cpg/sg2_96_cif.got.tgz:190878.got - 2010.06.03 11:33:40.
