data_PCOD9015093
_publ_section_title
;
Structure prediction by ZEFSAII (Michael W. Deem and Ramdas Pophale) SiO2 
 PCOD9015093
Probable space group: P -1
;
_chemical_formula_sum "Si O2"
_cell_formula_units_Z 16
_cell_length_a 12.379832
_cell_length_b 8.729020
_cell_length_c 8.898084
_cell_angle_alpha 97.520119
_cell_angle_beta 91.864357
_cell_angle_gamma 130.359395
_cell_volume 717.596940
_symmetry_space_group_name_H-M "P -1"
_symmetry_group_IT_number 2
_symmetry_cell_setting 'triclinic'
loop_
_space_group_symop_operation_xyz
x,y,z
-x,-y,-z
loop_
_atom_site_type_symbol
_atom_site_label
_atom_site_fract_x
_atom_site_fract_y
_atom_site_fract_z
Si Si1 0.019128 0.133814 0.874811
Si Si2 0.260700 0.297887 0.670085
Si Si3 0.618823 0.927418 0.415245
Si Si4 0.437275 0.309478 0.175145
Si Si5 0.313297 0.488225 0.374999
Si Si6 0.232981 0.905473 0.267468
Si Si7 0.196988 0.539558 0.118111
Si Si8 0.477083 0.126924 0.910352
O O1 0.123593 0.169901 0.754259
O O2 0.876582 0.060313 0.774507
O O3 0.095027 0.355591 0.977562
O O4 0.000000 0.000000 0.000000
O O5 0.309212 0.170601 0.621251
O O6 0.393910 0.504484 0.786503
O O7 0.255455 0.375425 0.517270
O O8 0.454705 0.730452 0.432120
O O9 0.603316 0.992969 0.261680
O O10 0.724754 0.103210 0.563063
O O11 0.367150 0.394344 0.260320
O O12 0.384309 0.116698 0.247456
O O13 0.402478 0.206417 0.995797
O O14 0.190025 0.457224 0.271948
O O15 0.180988 0.707253 0.150703
O O16 0.362971 0.670072 0.098372
O O17 0.500000 0.000000 0.000000
#
# Coordination Sequence:
#
# PCOD9015093 Si02
#       8
#     2   2   2   2   2   2   2   2
#     4  12  29  47  70  98 135 187 231 281 335 404
#     4  11  22  43  72 101 137 173 238 278 334 404
#     4  10  23  39  69 108 135 178 220 286 342 395
#     4  11  20  41  71 102 138 174 222 287 333 400
#     4  10  21  41  71 105 136 174 228 283 338 401
#     4  12  24  46  67  98 148 174 224 282 338 408
#     4  11  25  44  68  99 138 186 223 277 345 401
#     4  11  23  38  70 110 139 172 225 281 345 407
#
# _framework density 22.29664
#
# number of rings (size 3 to 8) (size 9 to 14) (size 15 to 20)
#    0.000    1.000    5.000    1.875    3.500    5.000 
#    0.000    0.625    0.000    0.000    0.000    0.000 
#    0.000    0.000    0.000    0.000    0.000    0.000 
#
# Total GULP energy -89324.031480 kJ/mol
# GULP energy per Si atom -5582.751968 kJ/mol
# Density = 2.224589 g / cm^3
# Si number density = 22.296640 Si / 1000 Ang^3
#
#
#
# Elastic Constant Matrix: (Units=GPa)
#
#
# Indices 1 2 3 4 5 6 
#
# 1 44.1652 -2.8896 7.3992 -8.5683 -2.0591 1.9550
# 2 -2.8896 43.0359 13.0286 -4.5517 -2.1929 -5.5235
# 3 7.3992 13.0286 71.0507 -9.5620 11.6365 8.6815
# 4 -8.5683 -4.5517 -9.5620 47.1824 -1.1396 4.4968
# 5 -2.0591 -2.1929 11.6365 -1.1396 29.9496 -4.0792
# 6 1.9550 -5.5235 8.6815 4.4968 -4.0792 23.9810
#
#
#
# Elastic Compliance Matrix: (Units=1/GPa)
#
#
# Indices 1 2 3 4 5 6 
#
# 1 0.024334 0.003093 -0.002997 0.004229 0.003165 -0.000441
# 2 0.003093 0.027372 -0.007459 0.000924 0.006468 0.009680
# 3 -0.002997 -0.007459 0.019059 0.003382 -0.009475 -0.010619
# 4 0.004229 0.000924 0.003382 0.023275 -0.000869 -0.005868
# 5 0.003165 0.006468 -0.009475 -0.000869 0.039296 0.011509
# 6 -0.000441 0.009680 -0.010619 -0.005868 0.011509 0.050868
#
#
# Mechanical properties :
#
#
# Convention : Reuss Voigt Hill
#
# Bulk Modulus (GPa) = 17.84459 21.48091 19.66275
# Shear Modulus (GPa) = 22.97698 29.60351 26.29024
#
# Velocity S-wave (km/s) = 3.21364 3.64773 3.43755
# Velocity P-wave (km/s) = 4.66804 5.23415 4.95918
#
# Compressibility (1/GPa) = 0.05603939
#
# Stress axis : x y z
#
# Youngs Moduli (GPa) = 41.09453 36.53380 52.46948
#
# Poissons Ratio (x) = -0.11300 0.15723
# Poissons Ratio (y) = -0.12710 0.39137
# Poissons Ratio (z) = 0.12314 0.27251
#
# Static dielectric constant tensor:
#      x y z
#    x 1.843720 -0.016170 -0.006640 
#    y -0.016170 1.832530 -0.032890 
#    z -0.006640 -0.032890 1.968800 
# 
# From -- ./inp_files/244582.got.cif
#   From: 2010.05.17/outbox.cif.g08.bks.cpg/sg2_123_cif.got.tgz:244582.got - 2010.06.03 11:33:40.
