data_PCOD9015423
_publ_section_title
;
Structure prediction by ZEFSAII (Michael W. Deem and Ramdas Pophale) SiO2 
 PCOD9015423
Probable space group: P -1
;
_chemical_formula_sum "Si O2"
_cell_formula_units_Z 16
_cell_length_a 11.681759
_cell_length_b 6.877469
_cell_length_c 13.491433
_cell_angle_alpha 74.537303
_cell_angle_beta 114.418749
_cell_angle_gamma 136.774412
_cell_volume 674.897042
_symmetry_space_group_name_H-M "P -1"
_symmetry_group_IT_number 2
_symmetry_cell_setting 'triclinic'
loop_
_space_group_symop_operation_xyz
x,y,z
-x,-y,-z
loop_
_atom_site_type_symbol
_atom_site_label
_atom_site_fract_x
_atom_site_fract_y
_atom_site_fract_z
Si Si1 0.266332 0.927191 0.472861
Si Si2 0.737125 0.773482 0.753799
Si Si3 0.209124 0.720703 0.940983
Si Si4 0.201763 0.817951 0.142301
Si Si5 0.562812 0.203216 0.685143
Si Si6 0.096774 0.014848 0.774318
Si Si7 0.980736 0.310350 0.399244
Si Si8 0.275448 0.634275 0.778995
O O1 0.143529 0.876418 0.525012
O O2 0.171726 0.604585 0.463134
O O3 0.264301 0.068751 0.358456
O O4 0.465287 0.135703 0.556984
O O5 0.590973 0.439992 0.724081
O O6 0.722979 0.884456 0.834137
O O7 0.928749 0.883617 0.799932
O O8 0.311260 0.704291 0.899083
O O9 0.009238 0.405746 0.912278
O O10 0.193398 0.930167 0.865712
O O11 0.268281 0.806067 0.063394
O O12 0.252724 0.708103 0.257713
O O13 0.432414 0.901586 0.734407
O O14 0.223140 0.350244 0.771843
O O15 0.029563 0.876932 0.659604
O O16 0.890009 0.405906 0.302745
#
# Coordination Sequence:
#
# PCOD9015423 Si02
#       8
#     2   2   2   2   2   2   2   2
#     4  10  21  42  62  91 132 165 205 259 306 368
#     4  12  23  41  62  95 128 165 211 253 306 380
#     4  10  22  42  70  92 122 164 210 259 310 376
#     4  11  24  42  64  97 126 160 211 260 313 372
#     4  11  26  42  60  93 133 165 200 266 316 355
#     4  11  20  39  71  93 119 166 214 254 306 371
#     4   9  20  39  64  96 124 161 216 255 296 374
#     4  10  21  43  65  95 126 162 209 259 307 372
#
# _framework density 23.707321
#
# number of rings (size 3 to 8) (size 9 to 14) (size 15 to 20)
#    0.000    1.500    3.750    1.125    0.000    6.000 
#    2.250    1.250    0.000    0.000    0.000    0.000 
#    0.000    0.000    0.000    0.000    0.000    0.000 
#
# Total GULP energy -89541.519409 kJ/mol
# GULP energy per Si atom -5596.344963 kJ/mol
# Density = 2.365336 g / cm^3
# Si number density = 23.707321 Si / 1000 Ang^3
#
#
#
# Elastic Constant Matrix: (Units=GPa)
#
#
# Indices 1 2 3 4 5 6 
#
# 1 46.1365 17.3062 28.1768 19.3105 -10.6930 -9.1354
# 2 17.3062 141.5704 30.0393 28.6004 -9.4994 -21.1724
# 3 28.1768 30.0393 65.7727 18.0349 -10.8565 -12.1649
# 4 19.3105 28.6004 18.0349 31.0911 -3.0186 -9.0120
# 5 -10.6930 -9.4994 -10.8565 -3.0186 39.7189 7.6311
# 6 -9.1354 -21.1724 -12.1649 -9.0120 7.6311 35.5403
#
#
#
# Elastic Compliance Matrix: (Units=1/GPa)
#
#
# Indices 1 2 3 4 5 6 
#
# 1 0.036114 0.001833 -0.010426 -0.017155 0.005774 0.001216
# 2 0.001833 0.009360 -0.002285 -0.007409 0.000932 0.003186
# 3 -0.010426 -0.002285 0.022464 -0.003587 0.002074 0.002293
# 4 -0.017155 -0.007409 -0.003587 0.052515 -0.004179 0.004163
# 5 0.005774 0.000932 0.002074 -0.004179 0.028035 -0.004330
# 6 0.001216 0.003186 0.002293 0.004163 -0.004330 0.033118
#
#
# Mechanical properties :
#
#
# Convention : Reuss Voigt Hill
#
# Bulk Modulus (GPa) = 21.65423 44.94714 33.30069
# Shear Modulus (GPa) = 22.85619 33.13388 27.99503
#
# Velocity S-wave (km/s) = 3.10836 3.74253 3.44009
# Velocity P-wave (km/s) = 4.69429 6.13806 5.46407
#
# Compressibility (1/GPa) = 0.04618036
#
# Stress axis : x y z
#
# Youngs Moduli (GPa) = 27.68984 106.83352 44.51550
#
# Poissons Ratio (x) = -0.19578 0.46414
# Poissons Ratio (y) = -0.05074 0.10173
# Poissons Ratio (z) = 0.28870 0.24415
#
# Static dielectric constant tensor:
#      x y z
#    x 1.975800 0.027810 0.005720 
#    y 0.027810 1.862810 0.015420 
#    z 0.005720 0.015420 1.950780 
# 
# From -- ./inp_files/78037.got.cif
#   From: 2010.05.17/outbox.cif.g08.bks.cpg/sg2_40_cif.got.tgz:78037.got - 2010.06.03 11:33:40.
