data_PCOD9015641
_publ_section_title
;
Structure prediction by ZEFSAII (Michael W. Deem and Ramdas Pophale) SiO2 
 PCOD9015641
Probable space group: P -1
;
_chemical_formula_sum "Si O2"
_cell_formula_units_Z 16
_cell_length_a 12.652013
_cell_length_b 7.556543
_cell_length_c 21.053608
_cell_angle_alpha 93.005040
_cell_angle_beta 27.767610
_cell_angle_gamma 78.396354
_cell_volume 792.926305
_symmetry_space_group_name_H-M "P -1"
_symmetry_group_IT_number 2
_symmetry_cell_setting 'triclinic'
loop_
_space_group_symop_operation_xyz
x,y,z
-x,-y,-z
loop_
_atom_site_type_symbol
_atom_site_label
_atom_site_fract_x
_atom_site_fract_y
_atom_site_fract_z
Si Si1 0.876749 0.311860 0.045884
Si Si2 0.643877 0.666350 0.266716
Si Si3 0.067536 0.000686 0.626227
Si Si4 0.237614 0.520092 0.170409
Si Si5 0.393853 0.087194 0.129866
Si Si6 0.162082 0.021931 0.008552
Si Si7 0.263617 0.920865 0.663286
Si Si8 0.221490 0.356897 0.673360
O O1 0.652870 0.528009 0.200676
O O2 0.750355 0.201841 0.073019
O O3 0.095999 0.320499 0.886463
O O4 0.055029 0.175369 0.008628
O O5 0.715795 0.556914 0.296057
O O6 0.348340 0.872272 0.436685
O O7 0.848462 0.943823 0.724757
O O8 0.135786 0.934599 0.662842
O O9 0.935742 0.250706 0.701334
O O10 0.308008 0.328742 0.174961
O O11 0.065130 0.512170 0.203427
O O12 0.500000 0.500000 0.000000
O O13 0.619367 0.981048 0.062211
O O14 0.500000 0.000000 0.000000
O O15 0.914330 0.075390 0.186095
O O16 0.557255 0.714460 0.500283
O O17 0.271172 0.132001 0.665259
#
# Coordination Sequence:
#
# PCOD9015641 Si02
#       8
#     2   2   2   2   2   2   2   2
#     4  10  24  40  65  86 122 173 209 259 308 363
#     4  10  21  42  64  91 119 164 220 258 304 376
#     4  10  22  41  63  97 129 159 207 266 319 373
#     4  11  22  35  60  97 129 169 192 248 342 372
#     4  12  23  40  63  97 133 162 206 257 320 387
#     4  11  22  41  61  92 126 162 212 260 310 377
#     4   9  16  33  60  90 124 151 193 270 323 356
#     4   9  18  31  60  93 120 154 199 263 320 366
#
# _framework density 20.178419000000002
#
# number of rings (size 3 to 8) (size 9 to 14) (size 15 to 20)
#    0.000    1.750    3.750    1.500    1.750    1.000 
#    4.500    3.750    0.000    0.000    0.000    0.000 
#    0.000    0.000    0.000    0.000    0.000    0.000 
#
# Total GULP energy -89283.800013 kJ/mol
# GULP energy per Si atom -5580.237501 kJ/mol
# Density = 2.013249 g / cm^3
# Si number density = 20.178419 Si / 1000 Ang^3
#
#
#
# Elastic Constant Matrix: (Units=GPa)
#
#
# Indices 1 2 3 4 5 6 
#
# 1 86.6565 4.7032 36.9136 1.1900 0.4149 12.5236
# 2 4.7032 53.2588 15.8248 7.0127 4.7113 8.3563
# 3 36.9136 15.8248 105.1807 11.4136 11.6624 10.8626
# 4 1.1900 7.0127 11.4136 21.9258 6.7230 1.4568
# 5 0.4149 4.7113 11.6624 6.7230 36.6732 -0.5755
# 6 12.5236 8.3563 10.8626 1.4568 -0.5755 24.6572
#
#
#
# Elastic Compliance Matrix: (Units=1/GPa)
#
#
# Indices 1 2 3 4 5 6 
#
# 1 0.014329 0.000743 -0.004850 0.001594 0.000907 -0.005466
# 2 0.000743 0.021085 -0.002111 -0.004881 -0.001251 -0.006334
# 3 -0.004850 -0.002111 0.012564 -0.004581 -0.002863 -0.002153
# 4 0.001594 -0.004881 -0.004581 0.051771 -0.007431 -0.000370
# 5 0.000907 -0.001251 -0.002863 -0.007431 0.029728 0.002358
# 6 -0.005466 -0.006334 -0.002153 -0.000370 0.002358 0.046504
#
#
# Mechanical properties :
#
#
# Convention : Reuss Voigt Hill
#
# Bulk Modulus (GPa) = 28.13446 39.99768 34.06607
# Shear Modulus (GPa) = 24.96715 29.16151 27.06433
#
# Velocity S-wave (km/s) = 3.52137 3.80568 3.66628
# Velocity P-wave (km/s) = 5.52327 6.25907 5.90265
#
# Compressibility (1/GPa) = 0.03554360
#
# Stress axis : x y z
#
# Youngs Moduli (GPa) = 69.78828 47.42731 79.59298
#
# Poissons Ratio (x) = -0.03525 0.38600
# Poissons Ratio (y) = -0.05186 0.16799
# Poissons Ratio (z) = 0.33845 0.10010
#
# Static dielectric constant tensor:
#      x y z
#    x 1.727070 0.051720 -0.002330 
#    y 0.051720 1.768300 0.031060 
#    z -0.002330 0.031060 1.720690 
# 
# From -- ./inp_files/417906.got.cif
#   From: 2010.05.17/outbox.cif.g08.bks.cpg/sg2_209_cif.got.tgz:417906.got - 2010.06.03 11:33:40.
