data_PCOD9015018
_publ_section_title
;
Structure prediction by ZEFSAII (Michael W. Deem and Ramdas Pophale) SiO2 
 PCOD9015018
Probable space group: P -1
;
_chemical_formula_sum "Si O2"
_cell_formula_units_Z 15
_cell_length_a 5.235092
_cell_length_b 14.164839
_cell_length_c 11.053248
_cell_angle_alpha 129.216424
_cell_angle_beta 100.478440
_cell_angle_gamma 94.773255
_cell_volume 602.939327
_symmetry_space_group_name_H-M "P -1"
_symmetry_group_IT_number 2
_symmetry_cell_setting 'triclinic'
loop_
_space_group_symop_operation_xyz
x,y,z
-x,-y,-z
loop_
_atom_site_type_symbol
_atom_site_label
_atom_site_fract_x
_atom_site_fract_y
_atom_site_fract_z
Si Si1 0.071166 0.730346 0.545996
Si Si2 0.470312 0.626977 0.662086
Si Si3 0.348226 0.001523 0.812922
Si Si4 0.000000 0.500000 0.000000
Si Si5 0.326798 0.693656 0.285717
Si Si6 0.694044 0.923977 0.393498
Si Si7 0.744476 0.887641 0.865829
Si Si8 0.370653 0.490135 0.784916
O O1 0.224170 0.669327 0.611709
O O2 0.090303 0.876960 0.696547
O O3 0.242685 0.734463 0.439848
O O4 0.790026 0.634229 0.406316
O O5 0.500000 0.500000 0.500000
O O6 0.730099 0.741447 0.745878
O O7 0.435207 0.599030 0.778765
O O8 0.581439 0.929306 0.778088
O O9 0.347360 0.077311 0.753748
O O10 0.407095 0.095822 0.007376
O O11 0.921871 0.340014 0.853566
O O12 0.190495 0.509566 0.896084
O O13 0.590952 0.786784 0.331837
O O14 0.358421 0.547583 0.175142
O O15 0.500000 0.000000 0.500000
O O16 0.000000 0.000000 0.500000
O O17 0.000000 0.000000 0.000000
#
# Coordination Sequence:
#
# PCOD9015018 Si02
#       8
#     2   2   2   1   2   2   2   2
#     4  10  21  41  70  96 134 177 230 293 355 423
#     4  11  23  41  68 104 129 175 237 288 355 435
#     4  10  23  45  66  99 137 183 241 292 366 435
#     4  10  26  44  64  92 140 186 230 288 360 430
#     4  11  23  44  67  97 140 185 235 294 366 424
#     4  12  27  44  73 109 139 193 248 301 364 443
#     4  10  25  45  68  98 140 190 227 306 374 426
#     4  11  23  43  67  97 134 184 232 296 358 426
#
# _framework density 24.878125000000001
#
# number of rings (size 3 to 8) (size 9 to 14) (size 15 to 20)
#    0.000    1.333    2.667    1.600    7.467    0.000 
#    4.800    0.000    0.000    0.000    0.000    0.000 
#    0.000    0.000    0.000    0.000    0.000    0.000 
#
# Total GULP energy -83669.559329 kJ/mol
# GULP energy per Si atom -5577.970622 kJ/mol
# Density = 2.482150 g / cm^3
# Si number density = 24.878125 Si / 1000 Ang^3
#
#
#
# Elastic Constant Matrix: (Units=GPa)
#
#
# Indices 1 2 3 4 5 6 
#
# 1 84.1137 19.0041 5.7049 10.2505 -0.8746 12.5536
# 2 19.0041 139.2641 17.9616 7.7127 12.3271 9.9128
# 3 5.7049 17.9616 114.4399 12.0677 -0.1157 -2.2435
# 4 10.2505 7.7127 12.0677 46.1365 5.2064 8.5411
# 5 -0.8746 12.3271 -0.1157 5.2064 36.5914 13.7714
# 6 12.5536 9.9128 -2.2435 8.5411 13.7714 29.5604
#
#
#
# Elastic Compliance Matrix: (Units=1/GPa)
#
#
# Indices 1 2 3 4 5 6 
#
# 1 0.013468 -0.001548 -0.000352 -0.001866 0.003483 -0.006310
# 2 -0.001548 0.007821 -0.001146 -0.000235 -0.002298 -0.000914
# 3 -0.000352 -0.001146 0.009238 -0.002510 0.000032 0.001945
# 4 -0.001866 -0.000235 -0.002510 0.023975 -0.001253 -0.005662
# 5 0.003483 -0.002298 0.000032 -0.001253 0.034552 -0.016441
# 6 -0.006310 -0.000914 0.001945 -0.005662 -0.016441 0.046258
#
#
# Mechanical properties :
#
#
# Convention : Reuss Voigt Hill
#
# Bulk Modulus (GPa) = 40.92354 47.01765 43.97060
# Shear Modulus (GPa) = 33.43363 42.13413 37.78388
#
# Velocity S-wave (km/s) = 3.66990 4.11983 3.90135
# Velocity P-wave (km/s) = 5.86880 6.44755 6.16497
#
# Compressibility (1/GPa) = 0.02443581
#
# Stress axis : x y z
#
# Youngs Moduli (GPa) = 74.25147 127.85871 108.24289
#
# Poissons Ratio (x) = 0.19795 0.03808
# Poissons Ratio (y) = 0.11496 0.12402
# Poissons Ratio (z) = 0.02612 0.14650
#
# Static dielectric constant tensor:
#      x y z
#    x 1.868880 0.219740 -0.338760 
#    y 0.219740 1.921050 0.233430 
#    z -0.338760 0.233430 1.652740 
# 
# From -- ./inp_files/368086.got.cif
#   From: 2010.05.17/outbox.cif.g08.bks.cpg/sg2_185_cif.got.tgz:368086.got - 2010.06.03 11:33:40.
