data_PCOD9015495
_publ_section_title
;
Structure prediction by ZEFSAII (Michael W. Deem and Ramdas Pophale) SiO2 
 PCOD9015495
Probable space group: P -1
;
_chemical_formula_sum "Si O2"
_cell_formula_units_Z 16
_cell_length_a 8.652416
_cell_length_b 22.468827
_cell_length_c 16.712531
_cell_angle_alpha 157.446565
_cell_angle_beta 31.661109
_cell_angle_gamma 146.262829
_cell_volume 637.164464
_symmetry_space_group_name_H-M "P -1"
_symmetry_group_IT_number 2
_symmetry_cell_setting 'triclinic'
loop_
_space_group_symop_operation_xyz
x,y,z
-x,-y,-z
loop_
_atom_site_type_symbol
_atom_site_label
_atom_site_fract_x
_atom_site_fract_y
_atom_site_fract_z
Si Si1 0.101255 0.470906 0.235731
Si Si2 0.567606 0.235924 0.128505
Si Si3 0.106276 0.077078 0.634087
Si Si4 0.373773 0.663393 0.208362
Si Si5 0.064273 0.744415 0.296177
Si Si6 0.451030 0.334814 0.125589
Si Si7 0.071782 0.948526 0.995641
Si Si8 0.361993 0.656475 0.492218
O O1 0.181429 0.526024 0.178067
O O2 0.170648 0.615988 0.445189
O O3 0.369945 0.378180 0.015349
O O4 0.764426 0.367930 0.263026
O O5 0.822464 0.140221 0.871199
O O6 0.274374 0.116390 0.145807
O O7 0.487336 0.316221 0.181660
O O8 0.416132 0.211220 0.668778
O O9 0.170202 0.933500 0.478729
O O10 0.000000 0.000000 0.500000
O O11 0.133538 0.707570 0.310233
O O12 0.715222 0.700727 0.374147
O O13 0.236222 0.657160 0.048251
O O14 0.321634 0.488720 0.349898
O O15 0.244500 0.162795 0.974992
O O16 0.275433 0.818578 0.759403
O O17 0.000000 0.000000 0.000000
#
# Coordination Sequence:
#
# PCOD9015495 Si02
#       8
#     2   2   2   2   2   2   2   2
#     4  10  22  37  63  94 131 168 212 270 324 383
#     4  10  21  42  63  90 131 172 215 263 321 381
#     4  11  20  35  62  95 132 173 213 261 324 385
#     4  10  22  35  55  99 140 162 207 272 327 375
#     4  12  22  37  64 101 131 167 215 268 325 381
#     4  11  23  39  66  96 130 166 220 265 321 385
#     4  10  24  45  66  91 126 177 221 263 319 393
#     4  12  23  41  70  98 127 171 220 266 327 384
#
# _framework density 25.111256000000001
#
# number of rings (size 3 to 8) (size 9 to 14) (size 15 to 20)
#    0.000    1.250    3.750    2.625    3.500    0.000 
#    0.000    3.125    0.000    1.500    0.000    0.000 
#    0.000    0.000    0.000    0.000    0.000    0.000 
#
# Total GULP energy -89446.324627 kJ/mol
# GULP energy per Si atom -5590.395289 kJ/mol
# Density = 2.505410 g / cm^3
# Si number density = 25.111256 Si / 1000 Ang^3
#
#
#
# Elastic Constant Matrix: (Units=GPa)
#
#
# Indices 1 2 3 4 5 6 
#
# 1 69.4970 19.9862 29.5345 4.6986 -12.6842 7.2466
# 2 19.9862 138.8784 14.4719 12.8198 2.3863 23.5376
# 3 29.5345 14.4719 74.6142 1.6435 -23.0514 -4.8193
# 4 4.6986 12.8198 1.6435 42.5973 3.2421 -4.3250
# 5 -12.6842 2.3863 -23.0514 3.2421 38.9190 12.9811
# 6 7.2466 23.5376 -4.8193 -4.3250 12.9811 42.6509
#
#
#
# Elastic Compliance Matrix: (Units=1/GPa)
#
#
# Indices 1 2 3 4 5 6 
#
# 1 0.018768 -0.001103 -0.006129 -0.002325 0.004361 -0.004836
# 2 -0.001103 0.008645 -0.001441 -0.002959 0.000208 -0.005110
# 3 -0.006129 -0.001441 0.018945 -0.000173 0.008910 0.001248
# 4 -0.002325 -0.002959 -0.000173 0.025615 -0.004840 0.006079
# 5 0.004361 0.000208 0.008910 -0.004840 0.036613 -0.011483
# 6 -0.004836 -0.005110 0.001248 0.006079 -0.011483 0.031340
#
#
# Mechanical properties :
#
#
# Convention : Reuss Voigt Hill
#
# Bulk Modulus (GPa) = 34.46799 45.66386 40.06592
# Shear Modulus (GPa) = 29.95039 39.43325 34.69182
#
# Velocity S-wave (km/s) = 3.45731 3.96705 3.72092
# Velocity P-wave (km/s) = 5.44915 6.26158 5.86944
#
# Compressibility (1/GPa) = 0.02901243
#
# Stress axis : x y z
#
# Youngs Moduli (GPa) = 53.28131 115.67389 52.78501
#
# Poissons Ratio (x) = 0.12760 0.32352
# Poissons Ratio (y) = 0.05877 0.07605
# Poissons Ratio (z) = 0.32656 0.16666
#
# Static dielectric constant tensor:
#      x y z
#    x 2.038520 -0.061510 -0.117530 
#    y -0.061510 2.030490 0.092880 
#    z -0.117530 0.092880 2.212880 
# 
# From -- ./inp_files/592099.got.cif
#   From: 2010.05.17/outbox.cif.g08.bks.cpg/sg2_297_cif.got.tgz:592099.got - 2010.06.03 11:33:40.
