data_PCOD9015177
_publ_section_title
;
Structure prediction by ZEFSAII (Michael W. Deem and Ramdas Pophale) SiO2 
 PCOD9015177
Probable space group: P -1
;
_chemical_formula_sum "Si O2"
_cell_formula_units_Z 16
_cell_length_a 10.239820
_cell_length_b 12.780655
_cell_length_c 8.452101
_cell_angle_alpha 93.846716
_cell_angle_beta 135.836859
_cell_angle_gamma 66.141442
_cell_volume 660.193284
_symmetry_space_group_name_H-M "P -1"
_symmetry_group_IT_number 2
_symmetry_cell_setting 'triclinic'
loop_
_space_group_symop_operation_xyz
x,y,z
-x,-y,-z
loop_
_atom_site_type_symbol
_atom_site_label
_atom_site_fract_x
_atom_site_fract_y
_atom_site_fract_z
Si Si1 0.927616 0.106903 0.232675
Si Si2 0.887427 0.494009 0.182454
Si Si3 0.053712 0.640100 0.452850
Si Si4 0.549287 0.869470 0.466246
Si Si5 0.196313 0.843678 0.325510
Si Si6 0.593086 0.283757 0.194334
Si Si7 0.981041 0.279425 0.040475
Si Si8 0.698063 0.893714 0.255375
O O1 0.120915 0.074392 0.524670
O O2 0.701004 0.189297 0.134070
O O3 0.991405 0.977627 0.199367
O O4 0.952665 0.194948 0.138797
O O5 0.966010 0.405395 0.393598
O O6 0.050779 0.545746 0.316881
O O7 0.654270 0.611731 0.030045
O O8 0.869735 0.417828 0.016161
O O9 0.265795 0.650570 0.653991
O O10 0.841158 0.773558 0.263106
O O11 0.344067 0.854635 0.320056
O O12 0.610606 0.863702 0.335703
O O13 0.500000 0.000000 0.500000
O O14 0.761739 0.770719 0.737448
O O15 0.353733 0.794234 0.608366
O O16 0.114430 0.751844 0.197453
O O17 0.500000 0.000000 0.000000
#
# Coordination Sequence:
#
# PCOD9015177 Si02
#       8
#     2   2   2   2   2   2   2   2
#     4  10  22  46  65 105 138 175 233 287 346 415
#     4  11  23  45  74  98 135 186 238 281 347 401
#     4  10  23  45  69 103 133 176 234 293 338 399
#     4  11  23  44  66  98 143 182 222 273 351 425
#     4  12  26  44  68 103 144 184 220 284 364 401
#     4  11  25  44  71 104 137 177 237 292 336 412
#     4  11  24  46  68  99 137 181 231 280 342 426
#     4  10  21  41  72 105 134 173 229 289 343 402
#
# _framework density 24.235325
#
# number of rings (size 3 to 8) (size 9 to 14) (size 15 to 20)
#    0.000    1.250    6.250    1.125    1.750    5.500 
#    0.000    1.250    0.000    0.000    0.000    0.000 
#    0.000    0.000    0.000    0.000    0.000    0.000 
#
# Total GULP energy -89617.825270 kJ/mol
# GULP energy per Si atom -5601.114079 kJ/mol
# Density = 2.418016 g / cm^3
# Si number density = 24.235325 Si / 1000 Ang^3
#
#
#
# Elastic Constant Matrix: (Units=GPa)
#
#
# Indices 1 2 3 4 5 6 
#
# 1 78.0938 22.3627 8.7751 6.9764 11.4117 -6.4854
# 2 22.3627 120.0809 25.1234 25.4759 25.5244 -4.7328
# 3 8.7751 25.1234 86.9721 -7.4950 14.8429 -10.7772
# 4 6.9764 25.4759 -7.4950 49.9709 3.6132 8.0140
# 5 11.4117 25.5244 14.8429 3.6132 32.2138 1.0896
# 6 -6.4854 -4.7328 -10.7772 8.0140 1.0896 32.4215
#
#
#
# Elastic Compliance Matrix: (Units=1/GPa)
#
#
# Indices 1 2 3 4 5 6 
#
# 1 0.014159 -0.001351 -0.000135 -0.001529 -0.003816 0.003096
# 2 -0.001351 0.012037 -0.002301 -0.006158 -0.007392 0.002493
# 3 -0.000135 -0.002301 0.013724 0.003026 -0.004914 0.003616
# 4 -0.001529 -0.006158 0.003026 0.024733 0.001468 -0.006362
# 5 -0.003816 -0.007392 -0.004914 0.001468 0.040527 -0.005201
# 6 0.003096 0.002493 0.003616 -0.006362 -0.005201 0.034776
#
#
# Mechanical properties :
#
#
# Convention : Reuss Voigt Hill
#
# Bulk Modulus (GPa) = 30.91665 44.18546 37.55106
# Shear Modulus (GPa) = 31.58348 38.18027 34.88188
#
# Velocity S-wave (km/s) = 3.61390 3.97343 3.79792
# Velocity P-wave (km/s) = 5.49530 6.27075 5.89579
#
# Compressibility (1/GPa) = 0.03234503
#
# Stress axis : x y z
#
# Youngs Moduli (GPa) = 70.62891 83.07905 72.86636
#
# Poissons Ratio (x) = 0.11223 0.00984
# Poissons Ratio (y) = 0.09541 0.16766
# Poissons Ratio (z) = 0.00954 0.19116
#
# Static dielectric constant tensor:
#      x y z
#    x 1.952390 0.008830 -0.035490 
#    y 0.008830 1.922180 0.043720 
#    z -0.035490 0.043720 1.941750 
# 
# From -- ./inp_files/270559.got.cif
#   From: 2010.05.17/outbox.cif.g08.bks.cpg/sg2_136_cif.got.tgz:270559.got - 2010.06.03 11:33:40.
