data_PCOD9015876
_publ_section_title
;
Structure prediction by ZEFSAII (Michael W. Deem and Ramdas Pophale) SiO2 
 PCOD9015876
Probable space group: P -1
;
_chemical_formula_sum "Si O2"
_cell_formula_units_Z 16
_cell_length_a 8.718877
_cell_length_b 19.622522
_cell_length_c 18.920789
_cell_angle_alpha 22.720838
_cell_angle_beta 42.994475
_cell_angle_gamma 56.048908
_cell_volume 765.194355
_symmetry_space_group_name_H-M "P -1"
_symmetry_group_IT_number 2
_symmetry_cell_setting 'triclinic'
loop_
_space_group_symop_operation_xyz
x,y,z
-x,-y,-z
loop_
_atom_site_type_symbol
_atom_site_label
_atom_site_fract_x
_atom_site_fract_y
_atom_site_fract_z
Si Si1 0.798404 0.101463 0.299343
Si Si2 0.910402 0.475222 0.135313
Si Si3 0.999188 0.470215 0.613964
Si Si4 0.120075 0.109590 0.926632
Si Si5 0.928839 0.897206 0.339203
Si Si6 0.528529 0.503816 0.808410
Si Si7 0.643623 0.198786 0.718281
Si Si8 0.893241 0.832076 0.637197
O O1 0.500000 0.000000 0.500000
O O2 0.908207 0.079316 0.208434
O O3 0.863255 0.954305 0.466021
O O4 0.918593 0.325891 0.070545
O O5 0.637945 0.467844 0.225128
O O6 0.940090 0.281065 0.331642
O O7 0.000000 0.500000 0.000000
O O8 0.745599 0.462535 0.739724
O O9 0.000000 0.500000 0.500000
O O10 0.023400 0.273474 0.809270
O O11 0.226073 0.634311 0.425998
O O12 0.424816 0.208672 0.734909
O O13 0.000000 0.000000 0.000000
O O14 0.009601 0.955685 0.175157
O O15 0.662129 0.708590 0.609477
O O16 0.131392 0.830706 0.366791
O O17 0.357753 0.335544 0.081893
O O18 0.500000 0.000000 0.000000
O O19 0.000000 0.000000 0.500000
#
# Coordination Sequence:
#
# PCOD9015876 Si02
#       8
#     2   2   2   2   2   2   2   2
#     4  12  25  41  67  97 138 175 219 285 335 390
#     4  10  21  42  65  95 130 173 227 275 322 402
#     4  11  23  41  67 102 131 173 221 277 346 407
#     4  11  23  43  70  95 130 180 223 282 345 405
#     4  10  24  43  63 100 132 171 223 276 345 402
#     4  10  22  41  68  92 134 172 223 280 325 408
#     4   9  20  43  65  91 135 164 217 281 326 405
#     4  11  23  44  69  96 132 184 227 272 334 398
#
# _framework density 20.909721000000001
#
# number of rings (size 3 to 8) (size 9 to 14) (size 15 to 20)
#    0.000    1.500    2.500    4.125    1.750    5.000 
#    6.750    0.000    0.000    0.000    0.000    0.000 
#    0.000    0.000    0.000    0.000    0.000    0.000 
#
# Total GULP energy -89267.895670 kJ/mol
# GULP energy per Si atom -5579.243479 kJ/mol
# Density = 2.086213 g / cm^3
# Si number density = 20.909721 Si / 1000 Ang^3
#
#
#
# Elastic Constant Matrix: (Units=GPa)
#
#
# Indices 1 2 3 4 5 6 
#
# 1 113.8804 53.7207 27.8203 -9.0362 -16.3595 -14.3011
# 2 53.7207 111.6995 31.1723 -31.0756 -21.3586 1.2763
# 3 27.8203 31.1723 91.9458 -26.0913 -19.3026 -1.9241
# 4 -9.0362 -31.0756 -26.0913 42.1970 3.1414 5.8628
# 5 -16.3595 -21.3586 -19.3026 3.1414 47.5479 -4.1208
# 6 -14.3011 1.2763 -1.9241 5.8628 -4.1208 41.1315
#
#
#
# Elastic Compliance Matrix: (Units=1/GPa)
#
#
# Indices 1 2 3 4 5 6 
#
# 1 0.013042 -0.006639 -0.002622 -0.004556 0.001209 0.005389
# 2 -0.006639 0.015811 0.000445 0.010748 0.003950 -0.003914
# 3 -0.002622 0.000445 0.014991 0.008825 0.004713 -0.001010
# 4 -0.004556 0.010748 0.008825 0.036688 0.003869 -0.006347
# 5 0.001209 0.003950 0.004713 0.003869 0.025094 0.002481
# 6 0.005389 -0.003914 -0.001010 -0.006347 0.002481 0.027413
#
#
# Mechanical properties :
#
#
# Convention : Reuss Voigt Hill
#
# Bulk Modulus (GPa) = 38.14772 60.32803 49.23787
# Shear Modulus (GPa) = 31.36601 39.82943 35.59772
#
# Velocity S-wave (km/s) = 3.87727 4.36917 4.13055
# Velocity P-wave (km/s) = 6.19096 7.37341 6.80790
#
# Compressibility (1/GPa) = 0.02621389
#
# Stress axis : x y z
#
# Youngs Moduli (GPa) = 76.67445 63.24648 66.70723
#
# Poissons Ratio (x) = 0.41988 0.17489
# Poissons Ratio (y) = 0.50902 -0.02971
# Poissons Ratio (z) = 0.20102 -0.02817
#
# Static dielectric constant tensor:
#      x y z
#    x 1.703070 0.038970 -0.163780 
#    y 0.038970 1.817230 0.087220 
#    z -0.163780 0.087220 1.541480 
# 
# From -- ./inp_files/591593.got.cif
#   From: 2010.05.17/outbox.cif.g08.bks.cpg/sg2_296_cif.got.tgz:591593.got - 2010.06.03 11:33:40.
