data_PCOD9015801
_publ_section_title
;
Structure prediction by ZEFSAII (Michael W. Deem and Ramdas Pophale) SiO2 
 PCOD9015801
Probable space group: P -1
;
_chemical_formula_sum "Si O2"
_cell_formula_units_Z 16
_cell_length_a 10.696166
_cell_length_b 13.759204
_cell_length_c 17.497396
_cell_angle_alpha 147.986834
_cell_angle_beta 33.267233
_cell_angle_gamma 147.625681
_cell_volume 662.420509
_symmetry_space_group_name_H-M "P -1"
_symmetry_group_IT_number 2
_symmetry_cell_setting 'triclinic'
loop_
_space_group_symop_operation_xyz
x,y,z
-x,-y,-z
loop_
_atom_site_type_symbol
_atom_site_label
_atom_site_fract_x
_atom_site_fract_y
_atom_site_fract_z
Si Si1 0.121619 0.605143 0.588199
Si Si2 0.366828 0.143988 0.178679
Si Si3 0.368578 0.267225 0.941895
Si Si4 0.623561 0.745486 0.584427
Si Si5 0.188695 0.112117 0.716007
Si Si6 0.676819 0.233431 0.646212
Si Si7 0.788219 0.093240 0.136033
Si Si8 0.323575 0.373178 0.678592
O O1 0.151882 0.821572 0.748703
O O2 0.402315 0.626332 0.456042
O O3 0.000000 0.500000 0.500000
O O4 0.934394 0.440453 0.635590
O O5 0.265937 0.149856 0.320767
O O6 0.582060 0.380624 0.210231
O O7 0.091879 0.034281 0.202552
O O8 0.500000 0.000000 0.000000
O O9 0.581844 0.203049 0.759793
O O10 0.329528 0.155386 0.969820
O O11 0.500000 0.500000 0.000000
O O12 0.070040 0.188987 0.019054
O O13 0.500000 0.500000 0.500000
O O14 0.404183 0.819632 0.733791
O O15 0.783598 0.757052 0.432794
O O16 0.431530 0.235736 0.730309
O O17 0.177410 0.264954 0.758759
O O18 0.278468 0.954661 0.528033
#
# Coordination Sequence:
#
# PCOD9015801 Si02
#       8
#     2   2   2   2   2   2   2   2
#     4  11  19  37  65  96 126 163 208 262 317 380
#     4  11  25  43  63  92 126 166 213 268 319 373
#     4  11  23  40  60  96 135 168 206 258 330 392
#     4   9  21  43  67  89 120 174 218 263 315 370
#     4  11  24  40  66  93 122 165 214 260 311 381
#     4  11  22  38  64  98 126 162 210 262 318 380
#     4  10  23  41  63  92 135 168 210 267 322 384
#     4  10  21  42  65  90 125 164 215 262 311 378
#
# _framework density 24.153843999999999
#
# number of rings (size 3 to 8) (size 9 to 14) (size 15 to 20)
#    0.000    1.500    3.750    1.500    3.500    1.000 
#    4.500    2.500    0.000    0.000    0.000    0.000 
#    0.000    0.000    0.000    0.000    0.000    0.000 
#
# Total GULP energy -89088.842345 kJ/mol
# GULP energy per Si atom -5568.052647 kJ/mol
# Density = 2.409887 g / cm^3
# Si number density = 24.153844 Si / 1000 Ang^3
#
#
#
# Elastic Constant Matrix: (Units=GPa)
#
#
# Indices 1 2 3 4 5 6 
#
# 1 56.5469 5.9879 1.2366 11.1358 1.5644 3.3180
# 2 5.9879 145.4301 14.0726 13.4277 -6.9091 -12.5426
# 3 1.2366 14.0726 94.8243 14.7940 -11.1851 2.7679
# 4 11.1358 13.4277 14.7940 35.1689 -4.3651 -1.8279
# 5 1.5644 -6.9091 -11.1851 -4.3651 32.2450 6.6759
# 6 3.3180 -12.5426 2.7679 -1.8279 6.6759 27.2613
#
#
#
# Elastic Compliance Matrix: (Units=1/GPa)
#
#
# Indices 1 2 3 4 5 6 
#
# 1 0.019200 -0.000566 0.000803 -0.006481 -0.001061 -0.002854
# 2 -0.000566 0.007482 -0.000830 -0.002109 0.000360 0.003366
# 3 0.000803 -0.000830 0.011927 -0.004623 0.003907 -0.002957
# 4 -0.006481 -0.002109 -0.004623 0.033637 0.002408 0.001954
# 5 -0.001061 0.000360 0.003907 0.002408 0.034562 -0.008404
# 6 -0.002854 0.003366 -0.002957 0.001954 -0.008404 0.041067
#
#
# Mechanical properties :
#
#
# Convention : Reuss Voigt Hill
#
# Bulk Modulus (GPa) = 26.72190 37.71063 32.21627
# Shear Modulus (GPa) = 30.95295 37.30198 34.12746
#
# Velocity S-wave (km/s) = 3.58368 3.93408 3.76296
# Velocity P-wave (km/s) = 5.31139 6.02350 5.67862
#
# Compressibility (1/GPa) = 0.03742248
#
# Stress axis : x y z
#
# Youngs Moduli (GPa) = 52.08347 133.65663 83.84361
#
# Poissons Ratio (x) = 0.07570 -0.06732
# Poissons Ratio (y) = 0.02950 0.06957
# Poissons Ratio (z) = -0.04182 0.11090
#
# Static dielectric constant tensor:
#      x y z
#    x 5.286720 3.675900 2.644200 
#    y 3.675900 6.365850 3.056360 
#    z 2.644200 3.056360 4.024930 
# 
# From -- ./inp_files/595653.got.cif
#   From: 2010.05.17/outbox.cif.g08.bks.cpg/sg2_298_cif.got.tgz:595653.got - 2010.06.03 11:33:40.
