data_PCOD9015836
_publ_section_title
;
Structure prediction by ZEFSAII (Michael W. Deem and Ramdas Pophale) SiO2 
 PCOD9015836
Probable space group: P -1
;
_chemical_formula_sum "Si O2"
_cell_formula_units_Z 14
_cell_length_a 8.698599
_cell_length_b 18.001471
_cell_length_c 8.766542
_cell_angle_alpha 36.220696
_cell_angle_beta 70.334436
_cell_angle_gamma 92.155866
_cell_volume 635.125540
_symmetry_space_group_name_H-M "P -1"
_symmetry_group_IT_number 2
_symmetry_cell_setting 'triclinic'
loop_
_space_group_symop_operation_xyz
x,y,z
-x,-y,-z
loop_
_atom_site_type_symbol
_atom_site_label
_atom_site_fract_x
_atom_site_fract_y
_atom_site_fract_z
Si Si1 0.782909 0.135312 0.040806
Si Si2 0.784678 0.654324 0.574131
Si Si3 0.737626 0.932908 0.130550
Si Si4 0.628360 0.235516 0.676715
Si Si5 0.988572 0.846244 0.789738
Si Si6 0.006298 0.743089 0.627177
Si Si7 0.432686 0.407297 0.521000
O O1 0.825234 0.120547 0.226002
O O2 0.729106 0.985203 0.216410
O O3 0.640877 0.174389 0.940574
O O4 0.998470 0.275828 0.682579
O O5 0.752355 0.790551 0.362899
O O6 0.620875 0.534608 0.709746
O O7 0.815477 0.626711 0.783921
O O8 0.553503 0.887459 0.161566
O O9 0.916872 0.087045 0.740727
O O10 0.821684 0.279325 0.443713
O O11 0.585085 0.362184 0.509171
O O12 0.978349 0.755192 0.793780
O O13 0.782588 0.741715 0.119746
O O14 0.000000 0.000000 0.500000
O O15 0.500000 0.500000 0.500000
#
# Coordination Sequence:
#
# PCOD9015836 Si02
#       7
#     2   2   2   2   2   2   2
#     4   9  16  28  48  77 107 137 170 209 257 310
#     4   8  15  29  50  71  97 140 176 200 250 323
#     4   9  14  27  49  74 104 141 172 203 252 320
#     4   9  18  33  52  75 103 142 178 210 257 318
#     4  11  21  34  54  83 111 137 172 218 259 300
#     4  10  17  30  50  77 105 135 174 217 254 302
#     4  10  21  39  57  75 102 140 178 215 262 319
#
# _framework density 22.042887
#
# number of rings (size 3 to 8) (size 9 to 14) (size 15 to 20)
#    0.000    2.857    0.000    6.857    0.000    0.000 
#    0.000   17.143    0.000    0.000    0.000    0.000 
#    0.000    0.000    0.000    0.000    0.000    0.000 
#
# Total GULP energy -77991.720365 kJ/mol
# GULP energy per Si atom -5570.837169 kJ/mol
# Density = 2.199272 g / cm^3
# Si number density = 22.042887 Si / 1000 Ang^3
#
#
#
# Elastic Constant Matrix: (Units=GPa)
#
#
# Indices 1 2 3 4 5 6 
#
# 1 138.4093 65.9036 16.8664 12.7103 8.7783 38.7281
# 2 65.9036 171.0001 11.0027 16.7595 14.8291 40.8853
# 3 16.8664 11.0027 36.9512 7.3528 -6.5826 4.1240
# 4 12.7103 16.7595 7.3528 19.6799 9.4532 3.8139
# 5 8.7783 14.8291 -6.5826 9.4532 16.0778 2.2047
# 6 38.7281 40.8853 4.1240 3.8139 2.2047 53.2087
#
#
#
# Elastic Compliance Matrix: (Units=1/GPa)
#
#
# Indices 1 2 3 4 5 6 
#
# 1 0.010632 -0.002029 -0.004541 0.000083 -0.005070 -0.005623
# 2 -0.002029 0.008507 -0.001884 -0.001448 -0.006033 -0.004559
# 3 -0.004541 -0.001884 0.042614 -0.030727 0.039454 0.002018
# 4 0.000083 -0.001448 -0.030727 0.096129 -0.067722 -0.000651
# 5 -0.005070 -0.006033 0.039454 -0.067722 0.125829 0.004908
# 6 -0.005623 -0.004559 0.002018 -0.000651 0.004908 0.026077
#
#
# Mechanical properties :
#
#
# Convention : Reuss Voigt Hill
#
# Bulk Modulus (GPa) = 22.29985 59.32291 40.81138
# Shear Modulus (GPa) = 14.63509 34.63246 24.63377
#
# Velocity S-wave (km/s) = 2.57949 3.96806 3.34659
# Velocity P-wave (km/s) = 4.36007 6.92567 5.78685
#
# Compressibility (1/GPa) = 0.04484334
#
# Stress axis : x y z
#
# Youngs Moduli (GPa) = 94.05678 117.55634 23.46642
#
# Poissons Ratio (x) = 0.23857 0.10656
# Poissons Ratio (y) = 0.19088 0.04422
# Poissons Ratio (z) = 0.42710 0.22151
#
# Static dielectric constant tensor:
#      x y z
#    x 1.850630 0.054530 0.004460 
#    y 0.054530 1.872760 0.038160 
#    z 0.004460 0.038160 1.865290 
# 
# From -- ./inp_files/198286.got.cif
#   From: 2010.05.17/outbox.cif.g08.bks.cpg/sg2_100_cif.got.tgz:198286.got - 2010.06.03 11:33:40.
