data_PCOD9015174
_publ_section_title
;
Structure prediction by ZEFSAII (Michael W. Deem and Ramdas Pophale) SiO2 
 PCOD9015174
Probable space group: P -1
;
_chemical_formula_sum "Si O2"
_cell_formula_units_Z 16
_cell_length_a 5.398213
_cell_length_b 15.017833
_cell_length_c 17.792001
_cell_angle_alpha 31.530284
_cell_angle_beta 69.903332
_cell_angle_gamma 84.942705
_cell_volume 643.886654
_symmetry_space_group_name_H-M "P -1"
_symmetry_group_IT_number 2
_symmetry_cell_setting 'triclinic'
loop_
_space_group_symop_operation_xyz
x,y,z
-x,-y,-z
loop_
_atom_site_type_symbol
_atom_site_label
_atom_site_fract_x
_atom_site_fract_y
_atom_site_fract_z
Si Si1 0.364995 0.288722 0.700962
Si Si2 0.558034 0.941495 0.397439
Si Si3 0.071916 0.323054 0.118012
Si Si4 0.412223 0.961688 0.836103
Si Si5 0.746819 0.732005 0.021798
Si Si6 0.266960 0.367286 0.382593
Si Si7 0.124592 0.609817 0.329740
Si Si8 0.975554 0.793489 0.637299
O O1 0.500000 0.500000 0.500000
O O2 0.536283 0.286540 0.760108
O O3 0.032622 0.256599 0.769446
O O4 0.411028 0.143684 0.745325
O O5 0.719578 0.811219 0.450442
O O6 0.307894 0.825198 0.565841
O O7 0.438145 0.987677 0.298870
O O8 0.780728 0.130720 0.276186
O O9 0.251735 0.324259 0.025315
O O10 0.188207 0.315923 0.193739
O O11 0.000000 0.500000 0.000000
O O12 0.569945 0.862332 0.942180
O O13 0.076073 0.830486 0.945808
O O14 0.578402 0.540667 0.221256
O O15 0.074332 0.454081 0.383506
O O16 0.173251 0.302320 0.354771
O O17 0.000000 0.500000 0.500000
O O18 0.000000 0.000000 0.500000
#
# Coordination Sequence:
#
# PCOD9015174 Si02
#       8
#     2   2   2   2   2   2   2   2
#     4  10  21  41  72 104 137 179 235 292 354 426
#     4  11  25  43  71 103 142 188 249 302 359 429
#     4  11  25  46  69 102 148 194 241 301 367 436
#     4  11  25  48  75 106 148 190 243 295 367 440
#     4  11  28  48  70 106 148 199 236 295 375 433
#     4  12  28  45  73 105 147 188 247 303 359 437
#     4  10  23  41  71 107 138 183 235 296 362 417
#     4  12  26  43  70 106 140 188 251 306 356 421
#
# _framework density 24.849091999999999
#
# number of rings (size 3 to 8) (size 9 to 14) (size 15 to 20)
#    0.000    1.000    1.250    4.125   14.000    0.500 
#    0.000    3.750    0.000    0.000    0.000    0.000 
#    0.000    0.000    0.000    0.000    0.000    0.000 
#
# Total GULP energy -89587.111508 kJ/mol
# GULP energy per Si atom -5599.194469 kJ/mol
# Density = 2.479253 g / cm^3
# Si number density = 24.849092 Si / 1000 Ang^3
#
#
#
# Elastic Constant Matrix: (Units=GPa)
#
#
# Indices 1 2 3 4 5 6 
#
# 1 113.6470 21.9380 10.2062 -7.7929 10.7834 -8.5923
# 2 21.9380 156.3984 21.1799 -20.5217 1.7629 2.7185
# 3 10.2062 21.1799 73.5413 -15.5162 0.2629 -4.4621
# 4 -7.7929 -20.5217 -15.5162 31.5886 -7.2482 13.7339
# 5 10.7834 1.7629 0.2629 -7.2482 37.3902 -5.4406
# 6 -8.5923 2.7185 -4.4621 13.7339 -5.4406 41.5922
#
#
#
# Elastic Compliance Matrix: (Units=1/GPa)
#
#
# Indices 1 2 3 4 5 6 
#
# 1 0.009464 -0.001235 -0.000889 -0.000201 -0.002459 0.001685
# 2 -0.001235 0.007431 -0.001012 0.005267 0.000670 -0.002501
# 3 -0.000889 -0.001012 0.015527 0.007404 0.001529 -0.000697
# 4 -0.000201 0.005267 0.007404 0.046289 0.006694 -0.014001
# 5 -0.002459 0.000670 0.001529 0.006694 0.028881 0.001180
# 6 0.001685 -0.002501 -0.000697 -0.014001 0.001180 0.029257
#
#
# Mechanical properties :
#
#
# Convention : Reuss Voigt Hill
#
# Bulk Modulus (GPa) = 38.23991 50.02610 44.13301
# Shear Modulus (GPa) = 32.92968 41.46504 37.19736
#
# Velocity S-wave (km/s) = 3.64426 4.08937 3.87322
# Velocity P-wave (km/s) = 5.75585 6.51713 6.14828
#
# Compressibility (1/GPa) = 0.02615069
#
# Stress axis : x y z
#
# Youngs Moduli (GPa) = 105.65932 134.56713 64.40419
#
# Poissons Ratio (x) = 0.16621 0.05727
# Poissons Ratio (y) = 0.13050 0.06515
# Poissons Ratio (z) = 0.09395 0.13613
#
# Static dielectric constant tensor:
#      x y z
#    x 2.054950 -0.024690 -0.022450 
#    y -0.024690 1.924310 0.012420 
#    z -0.022450 0.012420 1.874210 
# 
# From -- ./inp_files/37932.got.cif
#   From: 2010.05.17/outbox.cif.g08.bks.cpg/sg2_19_cif.got.tgz:37932.got - 2010.06.03 11:33:40.
