data_PCOD9015491
_publ_section_title
;
Structure prediction by ZEFSAII (Michael W. Deem and Ramdas Pophale) SiO2 
 PCOD9015491
Probable space group: P -1
;
_chemical_formula_sum "Si O2"
_cell_formula_units_Z 14
_cell_length_a 15.258810
_cell_length_b 6.884128
_cell_length_c 9.152460
_cell_angle_alpha 49.587224
_cell_angle_beta 118.018475
_cell_angle_gamma 116.193979
_cell_volume 632.675207
_symmetry_space_group_name_H-M "P -1"
_symmetry_group_IT_number 2
_symmetry_cell_setting 'triclinic'
loop_
_space_group_symop_operation_xyz
x,y,z
-x,-y,-z
loop_
_atom_site_type_symbol
_atom_site_label
_atom_site_fract_x
_atom_site_fract_y
_atom_site_fract_z
Si Si1 0.928109 0.809483 0.396979
Si Si2 0.567375 0.322012 0.559904
Si Si3 0.792952 0.634677 0.641014
Si Si4 0.084271 0.801557 0.048832
Si Si5 0.908483 0.480605 0.258826
Si Si6 0.465667 0.266243 0.198028
Si Si7 0.763484 0.754503 0.875053
O O1 0.966729 0.241815 0.428227
O O2 0.839080 0.778305 0.460474
O O3 0.896491 0.572862 0.370266
O O4 0.944215 0.062957 0.185436
O O5 0.500000 0.500000 0.500000
O O6 0.683647 0.454562 0.612900
O O7 0.541421 0.305008 0.375988
O O8 0.540941 0.020378 0.736454
O O9 0.869910 0.447545 0.831768
O O10 0.782865 0.801295 0.695510
O O11 0.991123 0.702465 0.132481
O O12 0.171276 0.007581 0.098621
O O13 0.805348 0.497833 0.085551
O O14 0.353806 0.272355 0.167998
O O15 0.500000 0.500000 0.000000
#
# Coordination Sequence:
#
# PCOD9015491 Si02
#       7
#     2   2   2   2   2   2   2
#     4   9  19  37  61  91 121 169 215 250 320 381
#     4  11  24  47  68  97 134 168 217 279 332 386
#     4  11  23  39  63  93 130 168 209 272 323 387
#     4  10  21  42  63  89 132 171 213 267 322 375
#     4   9  20  39  64  91 128 172 214 266 313 384
#     4  11  26  45  70  99 128 174 222 270 330 399
#     4  11  21  41  63  93 130 167 213 267 327 379
#
# _framework density 22.128257000000001
#
# number of rings (size 3 to 8) (size 9 to 14) (size 15 to 20)
#    0.000    1.714    2.857    1.714    4.000    2.857 
#    2.571   12.143    0.000    0.000    0.000    0.000 
#    0.000    0.000    0.000    0.000    0.000    0.000 
#
# Total GULP energy -78332.902072 kJ/mol
# GULP energy per Si atom -5595.207291 kJ/mol
# Density = 2.207789 g / cm^3
# Si number density = 22.128257 Si / 1000 Ang^3
#
#
#
# Elastic Constant Matrix: (Units=GPa)
#
#
# Indices 1 2 3 4 5 6 
#
# 1 101.6844 36.8206 35.6900 -9.8519 -12.1320 -23.0216
# 2 36.8206 97.4412 38.1457 4.7430 -19.3749 1.4927
# 3 35.6900 38.1457 118.6984 -12.1518 -19.2490 1.8666
# 4 -9.8519 4.7430 -12.1518 35.6256 -1.1903 -4.3864
# 5 -12.1320 -19.3749 -19.2490 -1.1903 42.3654 6.9413
# 6 -23.0216 1.4927 1.8666 -4.3864 6.9413 21.9952
#
#
#
# Elastic Compliance Matrix: (Units=1/GPa)
#
#
# Indices 1 2 3 4 5 6 
#
# 1 0.019557 -0.007357 -0.003569 0.008003 -0.003066 0.023835
# 2 -0.007357 0.015552 -0.002310 -0.006128 0.005680 -0.011575
# 3 -0.003569 -0.002310 0.011235 0.002638 0.003962 -0.005256
# 4 0.008003 -0.006128 0.002638 0.033891 -0.000919 0.015617
# 5 -0.003066 0.005680 0.003962 -0.000919 0.029286 -0.013356
# 6 0.023835 -0.011575 -0.005256 0.015617 -0.013356 0.078973
#
#
# Mechanical properties :
#
#
# Convention : Reuss Voigt Hill
#
# Bulk Modulus (GPa) = 50.32124 59.90406 55.11265
# Shear Modulus (GPa) = 22.56409 33.80844 28.18626
#
# Velocity S-wave (km/s) = 3.19673 3.91300 3.57286
# Velocity P-wave (km/s) = 6.03453 6.89532 6.47924
#
# Compressibility (1/GPa) = 0.01987232
#
# Stress axis : x y z
#
# Youngs Moduli (GPa) = 51.13249 64.29979 89.00519
#
# Poissons Ratio (x) = 0.47308 0.31763
# Poissons Ratio (y) = 0.37620 0.20560
# Poissons Ratio (z) = 0.18248 0.14853
#
# Static dielectric constant tensor:
#      x y z
#    x 1.780160 -0.058360 0.031070 
#    y -0.058360 1.879970 -0.017480 
#    z 0.031070 -0.017480 1.827480 
# 
# From -- ./inp_files/288400.got.cif
#   From: 2010.05.17/outbox.cif.g08.bks.cpg/sg2_145_cif.got.tgz:288400.got - 2010.06.03 11:33:40.
