data_PCOD9015098
_publ_section_title
;
Structure prediction by ZEFSAII (Michael W. Deem and Ramdas Pophale) SiO2 
 PCOD9015098
Probable space group: P -1
;
_chemical_formula_sum "Si O2"
_cell_formula_units_Z 16
_cell_length_a 13.829113
_cell_length_b 22.889628
_cell_length_c 9.634429
_cell_angle_alpha 35.606704
_cell_angle_beta 137.093123
_cell_angle_gamma 159.160585
_cell_volume 626.124135
_symmetry_space_group_name_H-M "P -1"
_symmetry_group_IT_number 2
_symmetry_cell_setting 'triclinic'
loop_
_space_group_symop_operation_xyz
x,y,z
-x,-y,-z
loop_
_atom_site_type_symbol
_atom_site_label
_atom_site_fract_x
_atom_site_fract_y
_atom_site_fract_z
Si Si1 0.740173 0.377416 0.770835
Si Si2 0.014102 0.132709 0.037244
Si Si3 0.833106 0.709831 0.415732
Si Si4 0.019889 0.673973 0.288407
Si Si5 0.616709 0.478786 0.000140
Si Si6 0.241022 0.546642 0.071873
Si Si7 0.958940 0.875496 0.506562
Si Si8 0.508906 0.125884 0.744448
O O1 0.598669 0.312201 0.898002
O O2 0.611804 0.239143 0.775214
O O3 0.830251 0.534477 0.489199
O O4 0.016454 0.487555 0.894544
O O5 0.076151 0.193252 0.824274
O O6 0.877682 0.150727 0.917506
O O7 0.319854 0.310198 0.079371
O O8 0.887904 0.949703 0.300197
O O9 0.500000 0.500000 0.500000
O O10 0.919284 0.647563 0.660237
O O11 0.976464 0.865169 0.381250
O O12 0.250672 0.730023 0.398331
O O13 0.832976 0.562907 0.170197
O O14 0.598826 0.398447 0.999238
O O15 0.732086 0.657593 0.734899
O O16 0.238320 0.012823 0.613489
O O17 0.500000 0.000000 0.000000
#
# Coordination Sequence:
#
# PCOD9015098 Si02
#       8
#     2   2   2   2   2   2   2   2
#     4  11  23  41  75  99 140 187 244 288 359 429
#     4  12  25  44  71 112 143 188 247 293 352 434
#     4  11  21  46  73  99 146 190 235 299 357 421
#     4  12  25  44  70 108 146 185 241 296 356 428
#     4  11  23  47  74 103 148 187 239 298 357 424
#     4  10  21  41  71 106 130 186 243 290 351 426
#     4  11  25  44  76 100 144 191 241 291 368 416
#     4  12  24  47  68 103 146 187 231 303 359 423
#
# _framework density 25.554037000000001
#
# number of rings (size 3 to 8) (size 9 to 14) (size 15 to 20)
#    0.000    0.750    6.250    2.625    1.750    0.500 
#    4.500    0.625    0.000    0.000    0.000    0.000 
#    0.000    0.000    0.000    0.000    0.000    0.000 
#
# Total GULP energy -89556.482908 kJ/mol
# GULP energy per Si atom -5597.280182 kJ/mol
# Density = 2.549587 g / cm^3
# Si number density = 25.554037 Si / 1000 Ang^3
#
#
#
# Elastic Constant Matrix: (Units=GPa)
#
#
# Indices 1 2 3 4 5 6 
#
# 1 174.6110 48.1128 52.3108 17.3094 -10.3648 -31.3665
# 2 48.1128 85.2111 29.0674 15.2324 -2.5558 -15.7868
# 3 52.3108 29.0674 125.5402 11.5337 8.7128 -15.5941
# 4 17.3094 15.2324 11.5337 39.8038 -13.0877 -5.7517
# 5 -10.3648 -2.5558 8.7128 -13.0877 53.2193 5.2189
# 6 -31.3665 -15.7868 -15.5941 -5.7517 5.2189 40.8003
#
#
#
# Elastic Compliance Matrix: (Units=1/GPa)
#
#
# Indices 1 2 3 4 5 6 
#
# 1 0.008041 -0.002878 -0.002204 -0.000788 0.001206 0.003961
# 2 -0.002878 0.015046 -0.001547 -0.003953 -0.000808 0.002564
# 3 -0.002204 -0.001547 0.009803 -0.001972 -0.002743 0.001527
# 4 -0.000788 -0.003953 -0.001972 0.030016 0.007321 0.000406
# 5 0.001206 -0.000808 -0.002743 0.007321 0.021446 -0.002145
# 6 0.003961 0.002564 0.001527 0.000406 -0.002145 0.029462
#
#
# Mechanical properties :
#
#
# Convention : Reuss Voigt Hill
#
# Bulk Modulus (GPa) = 50.93285 71.59380 61.26332
# Shear Modulus (GPa) = 37.42083 43.82277 40.62180
#
# Velocity S-wave (km/s) = 3.83087 4.14563 3.99136
# Velocity P-wave (km/s) = 6.28826 7.14090 6.72810
#
# Compressibility (1/GPa) = 0.01963370
#
# Stress axis : x y z
#
# Youngs Moduli (GPa) = 124.35581 66.46473 102.00789
#
# Poissons Ratio (x) = 0.19127 0.22480
# Poissons Ratio (y) = 0.35787 0.15777
# Poissons Ratio (z) = 0.27405 0.10280
#
# Static dielectric constant tensor:
#      x y z
#    x 2.049600 0.012540 -0.035990 
#    y 0.012540 2.062000 -0.044520 
#    z -0.035990 -0.044520 2.002000 
# 
# From -- ./inp_files/320276.got.cif
#   From: 2010.05.17/outbox.cif.g08.bks.cpg/sg2_161_cif.got.tgz:320276.got - 2010.06.03 11:33:40.
