data_PCOD9015420
_publ_section_title
;
Structure prediction by ZEFSAII (Michael W. Deem and Ramdas Pophale) SiO2 
 PCOD9015420
Probable space group: P -1
;
_chemical_formula_sum "Si O2"
_cell_formula_units_Z 16
_cell_length_a 9.103999
_cell_length_b 6.681280
_cell_length_c 26.141996
_cell_angle_alpha 111.832978
_cell_angle_beta 140.972416
_cell_angle_gamma 51.520291
_cell_volume 763.532363
_symmetry_space_group_name_H-M "P -1"
_symmetry_group_IT_number 2
_symmetry_cell_setting 'triclinic'
loop_
_space_group_symop_operation_xyz
x,y,z
-x,-y,-z
loop_
_atom_site_type_symbol
_atom_site_label
_atom_site_fract_x
_atom_site_fract_y
_atom_site_fract_z
Si Si1 0.072481 0.404455 0.068860
Si Si2 0.446085 0.454751 0.661722
Si Si3 0.551998 0.964241 0.593936
Si Si4 0.381864 0.042625 0.856201
Si Si5 0.753279 0.216620 0.022899
Si Si6 0.986087 0.135295 0.845084
Si Si7 0.885452 0.007571 0.594348
Si Si8 0.860631 0.450497 0.690442
O O1 0.963373 0.650364 0.099428
O O2 0.926971 0.260016 0.032559
O O3 0.412890 0.208391 0.147132
O O4 0.000000 0.500000 0.000000
O O5 0.671148 0.293030 0.752556
O O6 0.621037 0.490718 0.668717
O O7 0.177763 0.734376 0.633375
O O8 0.385457 0.250235 0.602359
O O9 0.745665 0.962762 0.601338
O O10 0.754201 0.729815 0.665066
O O11 0.331231 0.916216 0.503760
O O12 0.207942 0.992013 0.845036
O O13 0.152520 0.299102 0.786857
O O14 0.601094 0.084535 0.947810
O O15 0.500000 0.500000 0.000000
O O16 0.951198 0.053947 0.108984
O O17 0.906038 0.245851 0.639220
#
# Coordination Sequence:
#
# PCOD9015420 Si02
#       8
#     2   2   2   2   2   2   2   2
#     4  12  24  41  61  86 116 159 208 247 297 356
#     4  10  23  39  62  92 123 158 201 250 300 357
#     4  10  22  39  64  91 123 159 200 246 300 365
#     4  11  23  42  60  88 123 156 204 251 296 356
#     4  12  24  40  63  86 118 164 200 247 304 350
#     4  11  24  42  60  87 124 158 201 253 296 352
#     4  10  21  42  62  91 124 158 200 246 302 362
#     4  10  23  40  61  92 123 158 199 251 302 355
#
# _framework density 20.955234999999998
#
# number of rings (size 3 to 8) (size 9 to 14) (size 15 to 20)
#    0.000    1.250    2.500    3.000    1.750    2.500 
#    2.250    0.000    0.000    0.000    0.000    0.000 
#    0.000    0.000    0.000    0.000    0.000    0.000 
#
# Total GULP energy -89461.833394 kJ/mol
# GULP energy per Si atom -5591.364587 kJ/mol
# Density = 2.090754 g / cm^3
# Si number density = 20.955235 Si / 1000 Ang^3
#
#
#
# Elastic Constant Matrix: (Units=GPa)
#
#
# Indices 1 2 3 4 5 6 
#
# 1 65.4088 20.9536 23.8693 -19.9243 8.0053 -9.7750
# 2 20.9536 70.0060 -4.8300 -15.5119 3.8339 -17.9093
# 3 23.8693 -4.8300 59.4621 -12.6276 -5.9121 2.0135
# 4 -19.9243 -15.5119 -12.6276 32.2817 -2.6178 -6.0887
# 5 8.0053 3.8339 -5.9121 -2.6178 26.2065 -15.2513
# 6 -9.7750 -17.9093 2.0135 -6.0887 -15.2513 36.2971
#
#
#
# Elastic Compliance Matrix: (Units=1/GPa)
#
#
# Indices 1 2 3 4 5 6 
#
# 1 0.024049 -0.004190 -0.008549 0.009899 -0.005116 0.004394
# 2 -0.004190 0.023355 0.007445 0.015724 0.011195 0.017324
# 3 -0.008549 0.007445 0.023891 0.009852 0.011760 0.006640
# 4 0.009899 0.015724 0.009852 0.054965 0.017873 0.026608
# 5 -0.005116 0.011195 0.011760 0.017873 0.061286 0.032243
# 6 0.004394 0.017324 0.006640 0.026608 0.032243 0.054925
#
#
# Mechanical properties :
#
#
# Convention : Reuss Voigt Hill
#
# Bulk Modulus (GPa) = 16.47298 30.54030 23.50664
# Shear Modulus (GPa) = 18.29532 29.28267 23.78900
#
# Velocity S-wave (km/s) = 2.95798 3.74223 3.37297
# Velocity P-wave (km/s) = 4.42089 5.76871 5.13918
#
# Compressibility (1/GPa) = 0.06070547
#
# Stress axis : x y z
#
# Youngs Moduli (GPa) = 41.58196 42.81719 41.85745
#
# Poissons Ratio (x) = 0.17941 0.35785
# Poissons Ratio (y) = 0.17423 -0.31162
# Poissons Ratio (z) = 0.35549 -0.31876
#
# Static dielectric constant tensor:
#      x y z
#    x 1.732120 -0.029510 -0.009060 
#    y -0.029510 1.775040 0.023850 
#    z -0.009060 0.023850 1.745360 
# 
# From -- ./inp_files/54006.got.cif
#   From: 2010.05.17/outbox.cif.g08.bks.cpg/sg2_28_cif.got.tgz:54006.got - 2010.06.03 11:33:40.
