data_PCOD9015063
_publ_section_title
;
Structure prediction by ZEFSAII (Michael W. Deem and Ramdas Pophale) SiO2 
 PCOD9015063
Probable space group: P -1
;
_chemical_formula_sum "Si O2"
_cell_formula_units_Z 14
_cell_length_a 12.588511
_cell_length_b 6.918347
_cell_length_c 11.172881
_cell_angle_alpha 138.359769
_cell_angle_beta 128.644757
_cell_angle_gamma 65.815663
_cell_volume 501.921883
_symmetry_space_group_name_H-M "P -1"
_symmetry_group_IT_number 2
_symmetry_cell_setting 'triclinic'
loop_
_space_group_symop_operation_xyz
x,y,z
-x,-y,-z
loop_
_atom_site_type_symbol
_atom_site_label
_atom_site_fract_x
_atom_site_fract_y
_atom_site_fract_z
Si Si1 0.842030 0.243764 0.558561
Si Si2 0.069620 0.574567 0.711977
Si Si3 0.160264 0.467175 0.085382
Si Si4 0.231402 0.228890 0.532656
Si Si5 0.353522 0.122430 0.935497
Si Si6 0.213158 0.996952 0.173810
Si Si7 0.532219 0.284548 0.815183
O O1 0.787244 0.487284 0.719098
O O2 0.983181 0.360500 0.646498
O O3 0.865595 0.006585 0.569018
O O4 0.725164 0.075011 0.315320
O O5 0.220383 0.502884 0.740110
O O6 0.000000 0.500000 0.500000
O O7 0.100688 0.885308 0.943406
O O8 0.195673 0.727433 0.134088
O O9 0.222072 0.175184 0.949986
O O10 0.000000 0.500000 0.000000
O O11 0.384383 0.143564 0.603187
O O12 0.197433 0.255174 0.379939
O O13 0.408325 0.463155 0.115959
O O14 0.500000 0.000000 0.000000
O O15 0.364442 0.960861 0.212651
O O16 0.500000 0.500000 0.000000
#
# Coordination Sequence:
#
# PCOD9015063 Si02
#       7
#     2   2   2   2   2   2   2
#     4  11  24  41  71  97 126 179 231 269 332 401
#     4  12  26  40  62  99 138 170 214 278 340 401
#     4  10  21  41  71 100 128 172 234 276 314 403
#     4  11  23  41  71  92 126 179 225 279 323 391
#     4  11  26  42  66 100 141 178 214 282 345 393
#     4  10  22  40  67  96 129 169 226 279 324 392
#     4  11  20  42  66  96 128 173 231 272 323 403
#
# _framework density 27.892785
#
# number of rings (size 3 to 8) (size 9 to 14) (size 15 to 20)
#    0.000    1.143    4.286    1.714    6.000    1.143 
#    0.000    1.429    0.000    0.000    0.000    0.000 
#    0.000    0.000    0.000    0.000    0.000    0.000 
#
# Total GULP energy -78051.938182 kJ/mol
# GULP energy per Si atom -5575.138442 kJ/mol
# Density = 2.782930 g / cm^3
# Si number density = 27.892785 Si / 1000 Ang^3
#
#
#
# Elastic Constant Matrix: (Units=GPa)
#
#
# Indices 1 2 3 4 5 6 
#
# 1 129.8249 42.6260 62.0890 -15.9056 -9.7766 -29.1700
# 2 42.6260 62.1833 24.0481 -3.5287 -3.6094 -34.2292
# 3 62.0890 24.0481 178.7741 -10.8082 -22.4317 -21.0434
# 4 -15.9056 -3.5287 -10.8082 42.7599 -5.0355 -5.3023
# 5 -9.7766 -3.6094 -22.4317 -5.0355 58.8250 7.9076
# 6 -29.1700 -34.2292 -21.0434 -5.3023 7.9076 57.8728
#
#
#
# Elastic Compliance Matrix: (Units=1/GPa)
#
#
# Indices 1 2 3 4 5 6 
#
# 1 0.011834 -0.005836 -0.002837 0.003486 0.000594 0.001720
# 2 -0.005836 0.027697 -0.000114 0.001664 -0.001012 0.013690
# 3 -0.002837 -0.000114 0.007034 0.001077 0.002180 0.000861
# 4 0.003486 0.001664 0.001077 0.026042 0.002628 0.005160
# 5 0.000594 -0.001012 0.002180 0.002628 0.018331 -0.001770
# 6 0.001720 0.013690 0.000861 0.005160 -0.001770 0.027271
#
#
# Mechanical properties :
#
#
# Convention : Reuss Voigt Hill
#
# Bulk Modulus (GPa) = 34.49267 69.81204 52.15236
# Shear Modulus (GPa) = 34.37688 48.02614 41.20151
#
# Velocity S-wave (km/s) = 3.51446 4.15397 3.84753
# Velocity P-wave (km/s) = 5.37229 6.93472 6.20290
#
# Compressibility (1/GPa) = 0.02899166
#
# Stress axis : x y z
#
# Youngs Moduli (GPa) = 84.50235 36.10474 142.15881
#
# Poissons Ratio (x) = 0.21070 0.40334
# Poissons Ratio (y) = 0.49315 0.01618
# Poissons Ratio (z) = 0.23975 0.00411
#
# Static dielectric constant tensor:
#      x y z
#    x 2.272080 -0.064680 -0.103120 
#    y -0.064680 2.552390 0.074610 
#    z -0.103120 0.074610 2.256920 
# 
# From -- ./inp_files/285770.got.cif
#   From: 2010.05.17/outbox.cif.g08.bks.cpg/sg2_143_cif.got.tgz:285770.got - 2010.06.03 11:33:40.
