data_PCOD9015225
_publ_section_title
;
Structure prediction by ZEFSAII (Michael W. Deem and Ramdas Pophale) SiO2 
 PCOD9015225
Probable space group: P -1
;
_chemical_formula_sum "Si O2"
_cell_formula_units_Z 16
_cell_length_a 5.081690
_cell_length_b 8.681454
_cell_length_c 25.142614
_cell_angle_alpha 39.601210
_cell_angle_beta 97.999981
_cell_angle_gamma 97.182280
_cell_volume 699.891526
_symmetry_space_group_name_H-M "P -1"
_symmetry_group_IT_number 2
_symmetry_cell_setting 'triclinic'
loop_
_space_group_symop_operation_xyz
x,y,z
-x,-y,-z
loop_
_atom_site_type_symbol
_atom_site_label
_atom_site_fract_x
_atom_site_fract_y
_atom_site_fract_z
Si Si1 0.061513 0.211449 0.403210
Si Si2 0.253900 0.338299 0.555425
Si Si3 0.533569 0.138698 0.357241
Si Si4 0.041055 0.206698 0.867716
Si Si5 0.198533 0.066780 0.736690
Si Si6 0.280531 0.796849 0.031210
Si Si7 0.574173 0.388495 0.187149
Si Si8 0.263533 0.732253 0.265214
O O1 0.272839 0.111036 0.393135
O O2 0.215442 0.460244 0.359217
O O3 0.772065 0.291732 0.352054
O O4 0.000000 0.000000 0.500000
O O5 0.500000 0.500000 0.500000
O O6 0.242654 0.241115 0.640897
O O7 0.000000 0.500000 0.500000
O O8 0.298136 0.099337 0.585520
O O9 0.436521 0.233068 0.271974
O O10 0.900507 0.228543 0.915035
O O11 0.854840 0.268211 0.797348
O O12 0.275878 0.404779 0.828598
O O13 0.134551 0.928498 0.943732
O O14 0.439771 0.157773 0.756973
O O15 0.917701 0.101945 0.747005
O O16 0.240337 0.796570 0.788730
O O17 0.407337 0.536101 0.100220
O O18 0.500000 0.000000 0.000000
#
# Coordination Sequence:
#
# PCOD9015225 Si02
#       8
#     2   2   2   2   2   2   2   2
#     4  12  26  41  65  93 134 175 229 286 339 395
#     4  11  24  43  68  90 131 177 233 282 331 399
#     4  11  24  42  67  96 122 179 232 278 330 399
#     4  10  21  41  73 100 131 178 224 278 333 403
#     4  11  28  43  66 100 137 183 217 284 347 406
#     4   9  20  38  73 103 129 166 235 276 322 397
#     4  10  22  43  69  96 133 175 233 274 333 405
#     4  12  26  45  67  99 144 176 223 279 356 400
#
# _framework density 22.860688
#
# number of rings (size 3 to 8) (size 9 to 14) (size 15 to 20)
#    0.000    1.250    1.250    3.375   10.500    2.000 
#    0.000    1.250    0.000    0.000    0.000    0.000 
#    0.000    0.000    0.000    0.000    0.000    0.000 
#
# Total GULP energy -89364.926039 kJ/mol
# GULP energy per Si atom -5585.307877 kJ/mol
# Density = 2.280866 g / cm^3
# Si number density = 22.860688 Si / 1000 Ang^3
#
#
#
# Elastic Constant Matrix: (Units=GPa)
#
#
# Indices 1 2 3 4 5 6 
#
# 1 87.0140 5.6866 16.5862 -8.4477 -2.2948 -14.8269
# 2 5.6866 59.9320 26.4916 -10.2540 11.3748 -16.8039
# 3 16.5862 26.4916 113.2086 -21.9478 15.4237 -10.4676
# 4 -8.4477 -10.2540 -21.9478 26.3270 -9.2990 9.0371
# 5 -2.2948 11.3748 15.4237 -9.2990 33.0474 6.6981
# 6 -14.8269 -16.8039 -10.4676 9.0371 6.6981 34.8820
#
#
#
# Elastic Compliance Matrix: (Units=1/GPa)
#
#
# Indices 1 2 3 4 5 6 
#
# 1 0.012717 0.000925 -0.001368 0.001929 0.000775 0.004792
# 2 0.000925 0.023172 -0.003342 -0.001031 -0.009193 0.012585
# 3 -0.001368 -0.003342 0.011486 0.007075 -0.002287 -0.000138
# 4 0.001929 -0.001031 0.007075 0.054629 0.015536 -0.014690
# 5 0.000775 -0.009193 -0.002287 0.015536 0.042350 -0.016943
# 6 0.004792 0.012585 -0.000138 -0.014690 -0.016943 0.043785
#
#
# Mechanical properties :
#
#
# Convention : Reuss Voigt Hill
#
# Bulk Modulus (GPa) = 25.12262 39.74260 32.43261
# Shear Modulus (GPa) = 23.92589 32.94397 28.43493
#
# Velocity S-wave (km/s) = 3.23862 3.80027 3.53063
# Velocity P-wave (km/s) = 4.99982 6.05628 5.55323
#
# Compressibility (1/GPa) = 0.03980477
#
# Stress axis : x y z
#
# Youngs Moduli (GPa) = 78.63504 43.15552 87.06259
#
# Poissons Ratio (x) = -0.03990 0.11911
# Poissons Ratio (y) = -0.07270 0.29093
# Poissons Ratio (z) = 0.10758 0.14421
#
# Static dielectric constant tensor:
#      x y z
#    x 2.318120 0.467410 -0.573280 
#    y 0.467410 2.425260 -0.726570 
#    z -0.573280 -0.726570 2.872070 
# 
# From -- ./inp_files/603726.got.cif
#   From: 2010.05.17/outbox.cif.g08.bks.cpg/sg2_302_cif.got.tgz:603726.got - 2010.06.03 11:33:40.
