data_PCOD9015802
_publ_section_title
;
Structure prediction by ZEFSAII (Michael W. Deem and Ramdas Pophale) SiO2 
 PCOD9015802
Probable space group: P -1
;
_chemical_formula_sum "Si O2"
_cell_formula_units_Z 16
_cell_length_a 5.963963
_cell_length_b 9.296017
_cell_length_c 18.311087
_cell_angle_alpha 45.699999
_cell_angle_beta 81.613015
_cell_angle_gamma 87.632046
_cell_volume 716.158159
_symmetry_space_group_name_H-M "P -1"
_symmetry_group_IT_number 2
_symmetry_cell_setting 'triclinic'
loop_
_space_group_symop_operation_xyz
x,y,z
-x,-y,-z
loop_
_atom_site_type_symbol
_atom_site_label
_atom_site_fract_x
_atom_site_fract_y
_atom_site_fract_z
Si Si1 0.254467 0.233393 0.439174
Si Si2 0.948339 0.159190 0.351256
Si Si3 0.726504 0.441095 0.558289
Si Si4 0.082502 0.279444 0.054578
Si Si5 0.450533 0.303710 0.900000
Si Si6 0.452724 0.732336 0.724895
Si Si7 0.306550 0.039935 0.258987
Si Si8 0.789372 0.016092 0.058480
O O1 0.298768 0.435332 0.410152
O O2 0.442002 0.196227 0.383260
O O3 0.025171 0.226970 0.403942
O O4 0.212821 0.048208 0.562056
O O5 0.811695 0.322806 0.260652
O O6 0.152838 0.098486 0.314122
O O7 0.500000 0.500000 0.500000
O O8 0.000000 0.500000 0.500000
O O9 0.705141 0.200732 0.659509
O O10 0.219815 0.165706 0.150780
O O11 0.880629 0.116167 0.093698
O O12 0.252595 0.311776 0.966423
O O13 0.000000 0.500000 0.000000
O O14 0.565528 0.526594 0.806299
O O15 0.353905 0.201049 0.865668
O O16 0.629932 0.167341 0.974682
O O17 0.457850 0.867389 0.749420
O O18 0.000000 0.000000 0.000000
#
# Coordination Sequence:
#
# PCOD9015802 Si02
#       8
#     2   2   2   2   2   2   2   2
#     4  10  23  40  65  93 127 171 226 274 341 402
#     4  10  21  42  65  90 126 173 221 275 336 410
#     4  12  27  48  72 103 146 183 232 296 354 420
#     4  11  23  41  65  97 135 174 222 283 347 414
#     4  10  22  41  63  93 126 170 220 280 337 409
#     4  11  23  39  66  94 128 170 227 275 342 418
#     4  11  25  41  66  98 133 180 225 280 351 417
#     4   9  21  41  64  83 127 168 216 273 333 399
#
# _framework density 22.341435000000001
#
# number of rings (size 3 to 8) (size 9 to 14) (size 15 to 20)
#    0.000    1.500    1.250    2.625    1.750   10.000 
#    0.000    0.000    0.000    0.000    0.000    0.000 
#    0.000    0.000    0.000    0.000    0.000    0.000 
#
# Total GULP energy -89149.639095 kJ/mol
# GULP energy per Si atom -5571.852443 kJ/mol
# Density = 2.229058 g / cm^3
# Si number density = 22.341435 Si / 1000 Ang^3
#
#
#
# Elastic Constant Matrix: (Units=GPa)
#
#
# Indices 1 2 3 4 5 6 
#
# 1 71.5487 37.4616 12.7981 1.6352 22.5535 3.0578
# 2 37.4616 150.8527 48.1558 -7.9510 18.2392 30.2017
# 3 12.7981 48.1558 89.9712 -9.0403 14.9186 7.1847
# 4 1.6352 -7.9510 -9.0403 34.6475 0.8713 0.2061
# 5 22.5535 18.2392 14.9186 0.8713 32.9813 4.0168
# 6 3.0578 30.2017 7.1847 0.2061 4.0168 33.8540
#
#
#
# Elastic Compliance Matrix: (Units=1/GPa)
#
#
# Indices 1 2 3 4 5 6 
#
# 1 0.019839 -0.004654 0.001226 -0.001405 -0.011939 0.003525
# 2 -0.004654 0.010945 -0.004373 0.001638 0.000092 -0.008437
# 3 0.001226 -0.004373 0.014304 0.002792 -0.005128 0.001346
# 4 -0.001405 0.001638 0.002792 0.030089 -0.001771 -0.001900
# 5 -0.011939 0.000092 -0.005128 -0.001771 0.041139 -0.002786
# 6 0.003525 -0.008437 0.001346 -0.001900 -0.002786 0.036803
#
#
# Mechanical properties :
#
#
# Convention : Reuss Voigt Hill
#
# Bulk Modulus (GPa) = 33.91470 56.57818 45.24644
# Shear Modulus (GPa) = 28.00324 34.56036 31.28180
#
# Velocity S-wave (km/s) = 3.54421 3.93735 3.74594
# Velocity P-wave (km/s) = 5.65347 6.78599 6.24545
#
# Compressibility (1/GPa) = 0.02948574
#
# Stress axis : x y z
#
# Youngs Moduli (GPa) = 50.40557 91.36514 69.90941
#
# Poissons Ratio (x) = 0.42525 -0.08572
# Poissons Ratio (y) = 0.23461 0.30572
# Poissons Ratio (z) = -0.06181 0.39955
#
# Static dielectric constant tensor:
#      x y z
#    x 2.044390 0.097940 -0.041030 
#    y 0.097940 1.850020 -0.062300 
#    z -0.041030 -0.062300 1.905410 
# 
# From -- ./inp_files/37543.got.cif
#   From: 2010.05.17/outbox.cif.g08.bks.cpg/sg2_19_cif.got.tgz:37543.got - 2010.06.03 11:33:40.
