data_PCOD9015150
_publ_section_title
;
Structure prediction by ZEFSAII (Michael W. Deem and Ramdas Pophale) SiO2 
 PCOD9015150
Probable space group: P -1
;
_chemical_formula_sum "Si O2"
_cell_formula_units_Z 14
_cell_length_a 10.733070
_cell_length_b 8.074935
_cell_length_c 14.165849
_cell_angle_alpha 74.564933
_cell_angle_beta 29.345627
_cell_angle_gamma 85.025429
_cell_volume 551.876381
_symmetry_space_group_name_H-M "P -1"
_symmetry_group_IT_number 2
_symmetry_cell_setting 'triclinic'
loop_
_space_group_symop_operation_xyz
x,y,z
-x,-y,-z
loop_
_atom_site_type_symbol
_atom_site_label
_atom_site_fract_x
_atom_site_fract_y
_atom_site_fract_z
Si Si1 0.685597 0.184048 0.504384
Si Si2 0.416616 0.624632 0.288593
Si Si3 0.654189 0.365086 0.956660
Si Si4 0.199525 0.844831 0.948440
Si Si5 0.002833 0.704792 0.408285
Si Si6 0.133714 0.080597 0.301160
Si Si7 0.008000 0.850307 0.872526
O O1 0.590151 0.334889 0.600464
O O2 0.980104 0.213018 0.347007
O O3 0.752933 0.161340 0.353509
O O4 0.475859 0.999261 0.711787
O O5 0.212646 0.708427 0.353130
O O6 0.301284 0.417735 0.359184
O O7 0.719153 0.728247 0.043297
O O8 0.751011 0.317490 0.000937
O O9 0.442860 0.171679 0.095990
O O10 0.500000 0.500000 0.000000
O O11 0.907110 0.399431 0.718106
O O12 0.055988 0.778500 0.954607
O O13 0.031785 0.954327 0.102811
O O14 0.046142 0.907472 0.318832
O O15 0.000000 0.000000 0.500000
#
# Coordination Sequence:
#
# PCOD9015150 Si02
#       7
#     2   2   2   2   2   2   2
#     4  11  20  39  67 101 136 175 226 283 348 408
#     4  10  22  39  62 100 138 171 226 284 341 411
#     4  12  25  41  68 103 139 179 226 282 351 407
#     4  10  22  41  66 104 140 181 235 287 333 417
#     4  11  23  40  65  95 137 181 223 284 348 403
#     4  12  21  39  66  97 132 171 223 285 340 402
#     4  10  21  41  71  99 139 187 231 282 347 403
#
# _framework density 25.367998
#
# number of rings (size 3 to 8) (size 9 to 14) (size 15 to 20)
#    0.000    1.143    2.857    4.286    2.000    0.000 
#    0.000    1.429    0.000   13.714    0.000    0.000 
#    0.000    0.000    0.000    0.000    0.000    0.000 
#
# Total GULP energy -78125.727411 kJ/mol
# GULP energy per Si atom -5580.409101 kJ/mol
# Density = 2.531026 g / cm^3
# Si number density = 25.367998 Si / 1000 Ang^3
#
#
#
# Elastic Constant Matrix: (Units=GPa)
#
#
# Indices 1 2 3 4 5 6 
#
# 1 129.7341 18.8005 35.3287 3.6720 25.9933 -4.2437
# 2 18.8005 88.0545 21.7501 9.1596 18.0891 -6.5267
# 3 35.3287 21.7501 96.3908 14.2451 18.7300 10.6404
# 4 3.6720 9.1596 14.2451 33.5392 12.3747 -6.7002
# 5 25.9933 18.0891 18.7300 12.3747 44.6596 -6.2027
# 6 -4.2437 -6.5267 10.6404 -6.7002 -6.2027 29.2270
#
#
#
# Elastic Compliance Matrix: (Units=1/GPa)
#
#
# Indices 1 2 3 4 5 6 
#
# 1 0.009506 -0.000455 -0.003103 0.002446 -0.004444 0.002026
# 2 -0.000455 0.013012 -0.002302 -0.000693 -0.003462 0.002784
# 3 -0.003103 -0.002302 0.014308 -0.005685 -0.002808 -0.008073
# 4 0.002446 -0.000693 -0.005685 0.036804 -0.007696 0.009074
# 5 -0.004444 -0.003462 -0.002808 -0.007696 0.030283 0.004267
# 6 0.002026 0.002784 -0.008073 0.009074 0.004267 0.041056
#
#
# Mechanical properties :
#
#
# Convention : Reuss Voigt Hill
#
# Bulk Modulus (GPa) = 39.82911 51.77089 45.80000
# Shear Modulus (GPa) = 30.29241 37.37183 33.83212
#
# Velocity S-wave (km/s) = 3.45935 3.84238 3.65588
# Velocity P-wave (km/s) = 5.62946 6.33541 5.99284
#
# Compressibility (1/GPa) = 0.02510727
#
# Stress axis : x y z
#
# Youngs Moduli (GPa) = 105.19222 76.85345 69.88959
#
# Poissons Ratio (x) = 0.03493 0.21689
# Poissons Ratio (y) = 0.04781 0.16087
# Poissons Ratio (z) = 0.32645 0.17690
#
# Static dielectric constant tensor:
#      x y z
#    x 2.032230 0.083200 0.034500 
#    y 0.083200 2.159700 -0.004340 
#    z 0.034500 -0.004340 2.010890 
# 
# From -- ./inp_files/515287.got.cif
#   From: 2010.05.17/outbox.cif.g08.bks.cpg/sg2_258_cif.got.tgz:515287.got - 2010.06.03 11:33:40.
