data_PCOD9015304
_publ_section_title
;
Structure prediction by ZEFSAII (Michael W. Deem and Ramdas Pophale) SiO2 
 PCOD9015304
Probable space group: P -1
;
_chemical_formula_sum "Si O2"
_cell_formula_units_Z 16
_cell_length_a 8.188197
_cell_length_b 12.054685
_cell_length_c 11.908260
_cell_angle_alpha 102.508383
_cell_angle_beta 88.534732
_cell_angle_gamma 142.906263
_cell_volume 670.120399
_symmetry_space_group_name_H-M "P -1"
_symmetry_group_IT_number 2
_symmetry_cell_setting 'triclinic'
loop_
_space_group_symop_operation_xyz
x,y,z
-x,-y,-z
loop_
_atom_site_type_symbol
_atom_site_label
_atom_site_fract_x
_atom_site_fract_y
_atom_site_fract_z
Si Si1 0.378682 0.090142 0.561599
Si Si2 0.867035 0.866098 0.267903
Si Si3 0.993610 0.510542 0.723516
Si Si4 0.410764 0.883250 0.650329
Si Si5 0.083411 0.124420 0.132226
Si Si6 0.487628 0.064094 0.900576
Si Si7 0.713390 0.432942 0.922927
Si Si8 0.714662 0.537019 0.179468
O O1 0.193191 0.084366 0.616832
O O2 0.399578 0.086555 0.427400
O O3 0.695890 0.297025 0.639887
O O4 0.304787 0.928212 0.584978
O O5 0.590209 0.715644 0.158406
O O6 0.859915 0.730483 0.266904
O O7 0.100945 0.051934 0.224230
O O8 0.157454 0.669377 0.659711
O O9 0.176554 0.510302 0.765739
O O10 0.924044 0.549405 0.840972
O O11 0.560472 0.026001 0.785318
O O12 0.378931 0.350334 0.156035
O O13 0.828178 0.067527 0.141315
O O14 0.000000 0.000000 0.000000
O O15 0.677759 0.284726 0.940858
O O16 0.500000 0.000000 0.000000
O O17 0.776631 0.552838 0.049665
#
# Coordination Sequence:
#
# PCOD9015304 Si02
#       8
#     2   2   2   2   2   2   2   2
#     4  10  23  46  68  97 120 169 233 267 312 385
#     4  10  22  40  62  90 130 168 220 263 316 393
#     4  11  24  40  65  98 128 164 228 268 316 383
#     4  11  22  42  75  92 126 170 216 278 325 359
#     4  11  23  39  59  93 132 173 214 249 329 399
#     4  11  22  40  67 101 126 164 213 273 319 383
#     4  10  21  42  56  99 132 165 222 255 322 392
#     4  12  24  40  62  94 139 179 197 267 338 377
#
# _framework density 23.876304000000001
#
# number of rings (size 3 to 8) (size 9 to 14) (size 15 to 20)
#    0.000    1.250    6.250    1.875    3.500    2.000 
#    0.000    0.625    0.000    2.250    0.000    0.000 
#    0.000    0.000    0.000    0.000    0.000    0.000 
#
# Total GULP energy -89692.438358 kJ/mol
# GULP energy per Si atom -5605.777397 kJ/mol
# Density = 2.382196 g / cm^3
# Si number density = 23.876304 Si / 1000 Ang^3
#
#
#
# Elastic Constant Matrix: (Units=GPa)
#
#
# Indices 1 2 3 4 5 6 
#
# 1 61.1541 49.3438 31.7519 -6.5163 -21.1981 -0.2452
# 2 49.3438 131.5929 51.4199 -28.7616 -11.7619 -9.4745
# 3 31.7519 51.4199 144.6596 -21.1027 -32.8624 0.1434
# 4 -6.5163 -28.7616 -21.1027 42.6319 1.3962 6.4733
# 5 -21.1981 -11.7619 -32.8624 1.3962 50.1600 4.1927
# 6 -0.2452 -9.4745 0.1434 6.4733 4.1927 35.9220
#
#
#
# Elastic Compliance Matrix: (Units=1/GPa)
#
#
# Indices 1 2 3 4 5 6 
#
# 1 0.027817 -0.010122 -0.000835 -0.002829 0.009168 -0.003037
# 2 -0.010122 0.013602 -0.002425 0.006107 -0.003080 0.002787
# 3 -0.000835 -0.002425 0.009660 0.003125 0.005478 -0.001886
# 4 -0.002829 0.006107 0.003125 0.029224 0.001796 -0.003897
# 5 0.009168 -0.003080 0.005478 0.001796 0.026982 -0.004245
# 6 -0.003037 0.002787 -0.001886 -0.003897 -0.004245 0.029758
#
#
# Mechanical properties :
#
#
# Convention : Reuss Voigt Hill
#
# Bulk Modulus (GPa) = 41.12457 66.93754 54.03105
# Shear Modulus (GPa) = 29.08456 39.40220 34.24338
#
# Velocity S-wave (km/s) = 3.49397 4.06675 3.79119
# Velocity P-wave (km/s) = 5.79124 7.08147 6.46861
#
# Compressibility (1/GPa) = 0.02431636
#
# Stress axis : x y z
#
# Youngs Moduli (GPa) = 35.94915 73.51659 103.51781
#
# Poissons Ratio (x) = 0.74414 0.08642
# Poissons Ratio (y) = 0.36388 0.25101
# Poissons Ratio (z) = 0.03001 0.17826
#
# Static dielectric constant tensor:
#      x y z
#    x 1.976610 0.012770 0.014690 
#    y 0.012770 1.899500 0.010560 
#    z 0.014690 0.010560 1.891430 
# 
# From -- ./inp_files/390420.got.cif
#   From: 2010.05.17/outbox.cif.g08.bks.cpg/sg2_196_cif.got.tgz:390420.got - 2010.06.03 11:33:40.
