data_PCOD9015849
_publ_section_title
;
Structure prediction by ZEFSAII (Michael W. Deem and Ramdas Pophale) SiO2 
 PCOD9015849
Probable space group: P -1
;
_chemical_formula_sum "Si O2"
_cell_formula_units_Z 12
_cell_length_a 11.594880
_cell_length_b 9.235371
_cell_length_c 11.964845
_cell_angle_alpha 89.318037
_cell_angle_beta 34.984498
_cell_angle_gamma 64.482406
_cell_volume 498.557650
_symmetry_space_group_name_H-M "P -1"
_symmetry_group_IT_number 2
_symmetry_cell_setting 'triclinic'
loop_
_space_group_symop_operation_xyz
x,y,z
-x,-y,-z
loop_
_atom_site_type_symbol
_atom_site_label
_atom_site_fract_x
_atom_site_fract_y
_atom_site_fract_z
Si Si1 0.415238 0.065022 0.898719
Si Si2 0.083239 0.623850 0.418102
Si Si3 0.110968 0.527412 0.166676
Si Si4 0.020300 0.899359 0.601992
Si Si5 0.947095 0.920376 0.209994
Si Si6 0.436063 0.844394 0.694682
O O1 0.759446 0.863599 0.652609
O O2 0.367656 0.029789 0.812434
O O3 0.314180 0.283745 0.981356
O O4 0.245368 0.048738 0.121928
O O5 0.242544 0.531195 0.174222
O O6 0.000000 0.500000 0.500000
O O7 0.216050 0.656266 0.408041
O O8 0.029198 0.708527 0.155644
O O9 0.781545 0.631926 0.440961
O O10 0.102317 0.970880 0.633700
O O11 0.000000 0.000000 0.500000
O O12 0.663741 0.094018 0.354217
O O13 0.224251 0.845317 0.926771
#
# Coordination Sequence:
#
# PCOD9015849 Si02
#       6
#     2   2   2   2   2   2
#     4  10  23  41  64  91 123 164 215 257 310 381
#     4  11  22  41  64  89 125 168 209 257 316 377
#     4  11  21  40  67  93 124 172 205 261 320 363
#     4  11  21  39  62  94 126 162 208 257 317 376
#     4  10  21  42  65  93 132 163 210 265 307 375
#     4   9  22  43  64  91 130 164 214 259 309 372
#
# _framework density 24.069431999999999
#
# number of rings (size 3 to 8) (size 9 to 14) (size 15 to 20)
#    0.000    1.667    3.333    1.000    0.000    0.667 
#    3.000    9.167    0.000    0.000    0.000    0.000 
#    0.000    0.000    0.000    0.000    0.000    0.000 
#
# Total GULP energy -66949.354285 kJ/mol
# GULP energy per Si atom -5579.112857 kJ/mol
# Density = 2.401465 g / cm^3
# Si number density = 24.069432 Si / 1000 Ang^3
#
#
#
# Elastic Constant Matrix: (Units=GPa)
#
#
# Indices 1 2 3 4 5 6 
#
# 1 151.4099 71.6302 44.2526 7.1981 26.7734 -0.7130
# 2 71.6302 154.9499 47.8410 21.2281 15.2846 12.7926
# 3 44.2526 47.8410 86.4885 13.2016 9.1408 13.2615
# 4 7.1981 21.2281 13.2016 41.8331 4.6339 12.9328
# 5 26.7734 15.2846 9.1408 4.6339 36.7612 -6.0672
# 6 -0.7130 12.7926 13.2615 12.9328 -6.0672 32.1140
#
#
#
# Elastic Compliance Matrix: (Units=1/GPa)
#
#
# Indices 1 2 3 4 5 6 
#
# 1 0.009959 -0.003441 -0.003062 0.001090 -0.004954 0.001482
# 2 -0.003441 0.009473 -0.002718 -0.002736 -0.000702 -0.001758
# 3 -0.003062 -0.002718 0.015763 -0.001323 -0.001251 -0.005198
# 4 0.001090 -0.002736 -0.001323 0.029510 -0.004887 -0.011147
# 5 -0.004954 -0.000702 -0.001251 -0.004887 0.033512 0.008986
# 6 0.001482 -0.001758 -0.005198 -0.011147 0.008986 0.040206
#
#
# Mechanical properties :
#
#
# Convention : Reuss Voigt Hill
#
# Bulk Modulus (GPa) = 59.69024 80.03288 69.86156
# Shear Modulus (GPa) = 30.77881 37.41663 34.09772
#
# Velocity S-wave (km/s) = 3.57984 3.94703 3.76791
# Velocity P-wave (km/s) = 6.47611 7.35494 6.92947
#
# Compressibility (1/GPa) = 0.01675316
#
# Stress axis : x y z
#
# Youngs Moduli (GPa) = 100.41573 105.56467 63.43810
#
# Poissons Ratio (x) = 0.36328 0.19424
# Poissons Ratio (y) = 0.34556 0.17241
# Poissons Ratio (z) = 0.30746 0.28690
#
# Static dielectric constant tensor:
#      x y z
#    x 2.041170 0.039850 0.008220 
#    y 0.039850 1.997740 -0.072420 
#    z 0.008220 -0.072420 1.961890 
# 
# From -- ./inp_files/36690.got.cif
#   From: 2010.05.17/outbox.cif.g08.bks.cpg/sg2_19_cif.got.tgz:36690.got - 2010.06.03 11:33:40.
