data_PCOD9015169
_publ_section_title
;
Structure prediction by ZEFSAII (Michael W. Deem and Ramdas Pophale) SiO2 
 PCOD9015169
Probable space group: P -1
;
_chemical_formula_sum "Si O2"
_cell_formula_units_Z 14
_cell_length_a 5.425149
_cell_length_b 17.365255
_cell_length_c 15.664573
_cell_angle_alpha 148.534372
_cell_angle_beta 123.300199
_cell_angle_gamma 47.234204
_cell_volume 563.767988
_symmetry_space_group_name_H-M "P -1"
_symmetry_group_IT_number 2
_symmetry_cell_setting 'triclinic'
loop_
_space_group_symop_operation_xyz
x,y,z
-x,-y,-z
loop_
_atom_site_type_symbol
_atom_site_label
_atom_site_fract_x
_atom_site_fract_y
_atom_site_fract_z
Si Si1 0.229378 0.817229 0.913688
Si Si2 0.152143 0.287521 0.553177
Si Si3 0.624719 0.139145 0.655638
Si Si4 0.663276 0.640399 0.024857
Si Si5 0.273632 0.091018 0.961177
Si Si6 0.426267 0.478582 0.676967
Si Si7 0.337483 0.036907 0.733833
O O1 0.211757 0.645880 0.736088
O O2 0.603597 0.773854 0.913657
O O3 0.542319 0.543413 0.844661
O O4 0.092844 0.856187 0.022321
O O5 0.398513 0.268725 0.661724
O O6 0.214484 0.393442 0.591589
O O7 0.772663 0.359191 0.580801
O O8 0.315097 0.098540 0.369165
O O9 0.564890 0.247120 0.833126
O O10 0.027074 0.033311 0.625400
O O11 0.500000 0.000000 0.500000
O O12 0.742058 0.772421 0.114310
O O13 0.000000 0.500000 0.000000
O O14 0.500000 0.000000 0.000000
O O15 0.000000 0.000000 0.000000
O O16 0.653359 0.006583 0.205730
#
# Coordination Sequence:
#
# PCOD9015169 Si02
#       7
#     2   2   2   2   2   2   2
#     4  10  21  41  72 103 131 172 229 296 356 404
#     4  12  27  43  66  98 155 188 229 287 360 425
#     4  12  25  44  65 101 150 196 239 283 356 429
#     4  12  25  39  68 101 138 185 244 284 339 420
#     4  10  22  42  73 106 131 172 245 301 350 415
#     4  12  25  44  67 107 138 185 236 298 341 420
#     4  12  26  43  70 100 141 201 233 289 364 424
#
# _framework density 24.832910999999999
#
# number of rings (size 3 to 8) (size 9 to 14) (size 15 to 20)
#    0.000    0.571    4.286    3.857    2.000    1.143 
#    0.000    0.000    0.000   20.571    0.000    0.000 
#    0.000    0.000    0.000    0.000    0.000    0.000 
#
# Total GULP energy -78137.292536 kJ/mol
# GULP energy per Si atom -5581.235181 kJ/mol
# Density = 2.477639 g / cm^3
# Si number density = 24.832911 Si / 1000 Ang^3
#
#
#
# Elastic Constant Matrix: (Units=GPa)
#
#
# Indices 1 2 3 4 5 6 
#
# 1 147.4739 33.6496 41.5367 10.3081 -10.5559 25.6080
# 2 33.6496 101.5047 18.1124 21.6121 -9.8682 13.8875
# 3 41.5367 18.1124 81.3632 23.1603 -8.6942 4.8437
# 4 10.3081 21.6121 23.1603 40.0820 5.6469 0.7644
# 5 -10.5559 -9.8682 -8.6942 5.6469 59.5972 1.6026
# 6 25.6080 13.8875 4.8437 0.7644 1.6026 42.0532
#
#
#
# Elastic Compliance Matrix: (Units=1/GPa)
#
#
# Indices 1 2 3 4 5 6 
#
# 1 0.009148 -0.001812 -0.004217 0.001044 0.000728 -0.004534
# 2 -0.001812 0.012488 0.000564 -0.006896 0.002565 -0.003058
# 3 -0.004217 0.000564 0.017329 -0.009632 0.002775 0.000455
# 4 0.001044 -0.006896 -0.009632 0.034725 -0.005715 0.002338
# 5 0.000728 0.002565 0.002775 -0.005715 0.018339 -0.002205
# 6 -0.004534 -0.003058 0.000455 0.002338 -0.002205 0.027539
#
#
# Mechanical properties :
#
#
# Convention : Reuss Voigt Hill
#
# Bulk Modulus (GPa) = 35.66723 57.43766 46.55245
# Shear Modulus (GPa) = 35.75474 44.14936 39.95205
#
# Velocity S-wave (km/s) = 3.79860 4.22104 4.01538
# Velocity P-wave (km/s) = 5.79942 6.85099 6.34702
#
# Compressibility (1/GPa) = 0.02803694
#
# Stress axis : x y z
#
# Youngs Moduli (GPa) = 109.31154 80.07817 57.70691
#
# Poissons Ratio (x) = 0.14507 0.24332
# Poissons Ratio (y) = 0.19803 -0.03256
# Poissons Ratio (z) = 0.46092 -0.04518
#
# Static dielectric constant tensor:
#      x y z
#    x 2.311310 -0.413250 -0.150260 
#    y -0.413250 2.665690 0.155180 
#    z -0.150260 0.155180 2.053920 
# 
# From -- ./inp_files/550576.got.cif
#   From: 2010.05.17/outbox.cif.g08.bks.cpg/sg2_276_cif.got.tgz:550576.got - 2010.06.03 11:33:40.
