data_PCOD9015774
_publ_section_title
;
Structure prediction by ZEFSAII (Michael W. Deem and Ramdas Pophale) SiO2 
 PCOD9015774
Probable space group: P -1
;
_chemical_formula_sum "Si O2"
_cell_formula_units_Z 14
_cell_length_a 21.364195
_cell_length_b 11.995599
_cell_length_c 8.519462
_cell_angle_alpha 36.586415
_cell_angle_beta 42.348367
_cell_angle_gamma 27.271111
_cell_volume 593.702499
_symmetry_space_group_name_H-M "P -1"
_symmetry_group_IT_number 2
_symmetry_cell_setting 'triclinic'
loop_
_space_group_symop_operation_xyz
x,y,z
-x,-y,-z
loop_
_atom_site_type_symbol
_atom_site_label
_atom_site_fract_x
_atom_site_fract_y
_atom_site_fract_z
Si Si1 0.690807 0.886006 0.473245
Si Si2 0.966092 0.334805 0.624247
Si Si3 0.010573 0.060524 0.151401
Si Si4 0.688394 0.559629 0.238343
Si Si5 0.929087 0.683923 0.076494
Si Si6 0.516578 0.511687 0.772128
Si Si7 0.495150 0.865561 0.943836
O O1 0.814378 0.611618 0.651639
O O2 0.774376 0.839217 0.220422
O O3 0.579207 0.889706 0.653129
O O4 0.617725 0.163400 0.384444
O O5 0.013662 0.456095 0.319553
O O6 0.049031 0.115189 0.857017
O O7 0.945712 0.214758 0.656944
O O8 0.847248 0.300842 0.201294
O O9 0.067573 0.099894 0.143451
O O10 0.641248 0.460533 0.551116
O O11 0.643648 0.821661 0.104406
O O12 0.590607 0.693820 0.114615
O O13 0.000000 0.500000 0.000000
O O14 0.500000 0.500000 0.000000
O O15 0.523553 0.305670 0.905715
#
# Coordination Sequence:
#
# PCOD9015774 Si02
#       7
#     2   2   2   2   2   2   2
#     4   9  22  40  62  87 121 158 201 241 301 353
#     4   9  22  39  59  92 117 158 202 238 300 346
#     4  11  21  39  66  90 121 156 202 250 290 357
#     4  10  22  40  62  94 115 155 206 249 298 347
#     4  10  23  38  58  92 126 161 191 241 301 357
#     4  11  25  40  63  90 118 163 200 242 306 358
#     4  10  21  42  65  84 121 157 198 259 296 342
#
# _framework density 23.580833999999999
#
# number of rings (size 3 to 8) (size 9 to 14) (size 15 to 20)
#    0.857    1.143    1.429    0.857    2.000    7.429 
#    0.000    0.000    0.000    0.000    0.000    0.000 
#    0.000    0.000    0.000    0.000    0.000    0.000 
#
# Total GULP energy -78165.226312 kJ/mol
# GULP energy per Si atom -5583.230451 kJ/mol
# Density = 2.352716 g / cm^3
# Si number density = 23.580834 Si / 1000 Ang^3
#
#
#
# Elastic Constant Matrix: (Units=GPa)
#
#
# Indices 1 2 3 4 5 6 
#
# 1 -15.2920 44.7256 45.9338 -20.4429 23.3013 -0.0227
# 2 44.7256 119.2437 42.2995 -13.5186 -20.0399 21.7212
# 3 45.9338 42.2995 88.9946 4.0994 -26.4025 19.7725
# 4 -20.4429 -13.5186 4.0994 44.2893 16.6044 -13.5718
# 5 23.3013 -20.0399 -26.4025 16.6044 6.2939 0.5469
# 6 -0.0227 21.7212 19.7725 -13.5718 0.5469 28.7631
#
#
#
# Elastic Compliance Matrix: (Units=1/GPa)
#
#
# Indices 1 2 3 4 5 6 
#
# 1 0.007571 -0.000116 0.006574 -0.009991 0.026373 -0.009641
# 2 -0.000116 0.010747 -0.006192 0.004921 -0.004182 -0.001458
# 3 0.006574 -0.006192 0.010215 0.000825 -0.003215 -0.001890
# 4 -0.009991 0.004921 0.000825 0.020840 0.000660 0.005529
# 5 0.026373 -0.004182 -0.003215 0.000660 0.032258 0.005087
# 6 -0.009641 -0.001458 -0.001890 0.005529 0.005087 0.039672
#
#
# Mechanical properties :
#
#
# Convention : Reuss Voigt Hill
#
# Bulk Modulus (GPa) = 34.40538 50.98490 42.69514
# Shear Modulus (GPa) = 38.32661 19.86843 29.09752
#
# Velocity S-wave (km/s) = 4.03591 2.90585 3.51657
# Velocity P-wave (km/s) = 6.02828 5.73820 5.88503
#
# Compressibility (1/GPa) = 0.02906522
#
# Stress axis : x y z
#
# Youngs Moduli (GPa) = 132.07716 93.05235 97.89914
#
# Poissons Ratio (x) = 0.01079 -0.64358
# Poissons Ratio (y) = 0.01532 0.60615
# Poissons Ratio (z) = -0.86826 0.57614
#
# Static dielectric constant tensor:
#      x y z
#    x 1.932620 -0.004020 0.050930 
#    y -0.004020 1.871070 -0.009140 
#    z 0.050930 -0.009140 1.952010 
# 
# From -- ./inp_files/352857.got.cif
#   From: 2010.05.17/outbox.cif.g08.bks.cpg/sg2_177_cif.got.tgz:352857.got - 2010.06.03 11:33:40.
