data_PCOD9015741
_publ_section_title
;
Structure prediction by ZEFSAII (Michael W. Deem and Ramdas Pophale) SiO2 
 PCOD9015741
Probable space group: P -1
;
_chemical_formula_sum "Si O2"
_cell_formula_units_Z 16
_cell_length_a 10.051154
_cell_length_b 10.025434
_cell_length_c 7.921551
_cell_angle_alpha 111.626852
_cell_angle_beta 106.640736
_cell_angle_gamma 54.779327
_cell_volume 603.329724
_symmetry_space_group_name_H-M "P -1"
_symmetry_group_IT_number 2
_symmetry_cell_setting 'triclinic'
loop_
_space_group_symop_operation_xyz
x,y,z
-x,-y,-z
loop_
_atom_site_type_symbol
_atom_site_label
_atom_site_fract_x
_atom_site_fract_y
_atom_site_fract_z
Si Si1 0.565751 0.787876 0.598542
Si Si2 0.729581 0.970129 0.594724
Si Si3 0.656845 0.059316 0.083025
Si Si4 0.316886 0.572900 0.538408
Si Si5 0.508710 0.607847 0.909026
Si Si6 0.140924 0.604030 0.005382
Si Si7 0.917712 0.156649 0.231941
Si Si8 0.825325 0.742969 0.183541
O O1 0.656434 0.888387 0.653531
O O2 0.461339 0.832130 0.751755
O O3 0.695149 0.590337 0.539409
O O4 0.424022 0.849799 0.434815
O O5 0.781827 0.855899 0.388427
O O6 0.885154 0.962941 0.726603
O O7 0.549500 0.201077 0.969738
O O8 0.829939 0.049114 0.141250
O O9 0.698517 0.872948 0.054224
O O10 0.500000 0.500000 0.500000
O O11 0.360674 0.628231 0.755194
O O12 0.138791 0.741921 0.557012
O O13 0.500000 0.500000 0.000000
O O14 0.693893 0.477385 0.855778
O O15 0.103638 0.733128 0.896747
O O16 0.174233 0.426651 0.857258
O O17 0.995909 0.676862 0.120514
#
# Coordination Sequence:
#
# PCOD9015741 Si02
#       8
#     2   2   2   2   2   2   2   2
#     4  10  21  42  64  99 128 164 215 269 328 382
#     4  10  24  41  68  93 131 170 213 271 323 384
#     4  10  22  43  68  95 130 166 221 269 319 386
#     4  11  21  38  66  95 125 165 213 265 316 382
#     4  11  22  41  64  93 129 172 208 267 319 383
#     4  11  24  43  62  93 134 169 219 259 328 386
#     4  11  23  42  65 100 128 168 219 270 319 387
#     4  10  25  43  63  92 129 173 214 269 317 391
#
# _framework density 26.519497999999999
#
# number of rings (size 3 to 8) (size 9 to 14) (size 15 to 20)
#    0.000    1.500    5.000    0.750    1.750    8.000 
#    2.250    0.000    0.000    0.000    0.000    0.000 
#    0.000    0.000    0.000    0.000    0.000    0.000 
#
# Total GULP energy -89140.289021 kJ/mol
# GULP energy per Si atom -5571.268064 kJ/mol
# Density = 2.645914 g / cm^3
# Si number density = 26.519498 Si / 1000 Ang^3
#
#
#
# Elastic Constant Matrix: (Units=GPa)
#
#
# Indices 1 2 3 4 5 6 
#
# 1 123.7163 19.2264 4.9642 -5.0957 -6.3808 8.3284
# 2 19.2264 91.1813 -0.7646 10.5420 1.5956 14.1860
# 3 4.9642 -0.7646 59.4884 3.2151 -17.0072 13.4340
# 4 -5.0957 10.5420 3.2151 35.5545 -8.7000 -5.0047
# 5 -6.3808 1.5956 -17.0072 -8.7000 32.5680 2.7878
# 6 8.3284 14.1860 13.4340 -5.0047 2.7878 39.5699
#
#
#
# Elastic Compliance Matrix: (Units=1/GPa)
#
#
# Indices 1 2 3 4 5 6 
#
# 1 0.008683 -0.001980 0.000088 0.002301 0.002547 -0.001036
# 2 -0.001980 0.012845 0.001457 -0.005261 -0.001211 -0.005263
# 3 0.000088 0.001457 0.022415 -0.000734 0.012234 -0.009106
# 4 0.002301 -0.005261 -0.000734 0.032938 0.008678 0.005206
# 5 0.002547 -0.001211 0.012234 0.008678 0.040485 -0.006010
# 6 -0.001036 -0.005263 -0.009106 0.005206 -0.006010 0.031550
#
#
# Mechanical properties :
#
#
# Convention : Reuss Voigt Hill
#
# Bulk Modulus (GPa) = 23.21607 35.69312 29.45459
# Shear Modulus (GPa) = 30.46108 38.26914 34.36511
#
# Velocity S-wave (km/s) = 3.39282 3.80288 3.60369
# Velocity P-wave (km/s) = 4.91138 5.72459 5.33351
#
# Compressibility (1/GPa) = 0.04307362
#
# Stress axis : x y z
#
# Youngs Moduli (GPa) = 115.16719 77.85068 44.61287
#
# Poissons Ratio (x) = 0.15411 -0.00392
# Poissons Ratio (y) = 0.22798 -0.06500
# Poissons Ratio (z) = -0.01012 -0.11342
#
# Static dielectric constant tensor:
#      x y z
#    x 1.984270 0.073630 -0.012830 
#    y 0.073630 2.036320 -0.196020 
#    z -0.012830 -0.196020 2.010650 
# 
# From -- ./inp_files/254594.got.cif
#   From: 2010.05.17/outbox.cif.g08.bks.cpg/sg2_128_cif.got.tgz:254594.got - 2010.06.03 11:33:40.
