data_PCOD9015494
_publ_section_title
;
Structure prediction by ZEFSAII (Michael W. Deem and Ramdas Pophale) SiO2 
 PCOD9015494
Probable space group: P -1
;
_chemical_formula_sum "Si O2"
_cell_formula_units_Z 16
_cell_length_a 8.971103
_cell_length_b 9.439415
_cell_length_c 13.660388
_cell_angle_alpha 104.433286
_cell_angle_beta 76.463036
_cell_angle_gamma 134.666514
_cell_volume 793.839790
_symmetry_space_group_name_H-M "P -1"
_symmetry_group_IT_number 2
_symmetry_cell_setting 'triclinic'
loop_
_space_group_symop_operation_xyz
x,y,z
-x,-y,-z
loop_
_atom_site_type_symbol
_atom_site_label
_atom_site_fract_x
_atom_site_fract_y
_atom_site_fract_z
Si Si1 0.755278 0.496401 0.584568
Si Si2 0.480393 0.119879 0.445408
Si Si3 0.916167 0.299549 0.606642
Si Si4 0.446641 0.604147 0.093111
Si Si5 0.732986 0.365667 0.262007
Si Si6 0.200518 0.054251 0.027450
Si Si7 0.393969 0.367194 0.227766
Si Si8 0.972961 0.358916 0.059579
O O1 0.543339 0.308133 0.526634
O O2 0.939639 0.626725 0.498701
O O3 0.735667 0.634209 0.669052
O O4 0.809747 0.391013 0.625807
O O5 0.643089 0.224836 0.347905
O O6 0.500000 0.000000 0.500000
O O7 0.252026 0.940162 0.405223
O O8 0.066664 0.410072 0.694982
O O9 0.606378 0.824270 0.059443
O O10 0.489637 0.569226 0.188218
O O11 0.201299 0.478961 0.094162
O O12 0.500000 0.500000 0.000000
O O13 0.561842 0.366410 0.247230
O O14 0.811188 0.304827 0.158011
O O15 0.119875 0.839121 0.018329
O O16 0.266554 0.188523 0.136447
O O17 0.000000 0.000000 0.000000
O O18 0.000000 0.500000 0.000000
#
# Coordination Sequence:
#
# PCOD9015494 Si02
#       8
#     2   2   2   2   2   2   2   2
#     4   9  19  39  64  90 123 168 212 276 331 392
#     4   9  20  41  64  94 129 166 226 273 328 402
#     4   9  19  39  64  90 125 165 219 271 331 391
#     4  10  21  42  63  90 127 169 217 274 332 391
#     4  11  25  39  62  97 133 173 223 274 339 391
#     4  11  24  44  68  94 131 179 228 272 337 404
#     4  11  23  42  63  95 139 174 224 281 335 400
#     4  12  25  43  70  97 134 177 225 283 332 391
#
# _framework density 20.155201000000002
#
# number of rings (size 3 to 8) (size 9 to 14) (size 15 to 20)
#    0.000    1.750    2.500    3.000    0.000    8.000 
#    2.250    1.250    0.000    0.000    0.000    0.000 
#    0.000    0.000    0.000    0.000    0.000    0.000 
#
# Total GULP energy -89228.973944 kJ/mol
# GULP energy per Si atom -5576.810871 kJ/mol
# Density = 2.010933 g / cm^3
# Si number density = 20.155201 Si / 1000 Ang^3
#
#
#
# Elastic Constant Matrix: (Units=GPa)
#
#
# Indices 1 2 3 4 5 6 
#
# 1 93.7496 24.3525 41.7216 19.6105 -8.8460 3.6225
# 2 24.3525 125.3388 36.0149 17.1981 -1.1766 4.5170
# 3 41.7216 36.0149 110.5070 22.3208 -10.8952 -1.3396
# 4 19.6105 17.1981 22.3208 25.2483 3.6724 8.5651
# 5 -8.8460 -1.1766 -10.8952 3.6724 30.9300 3.8492
# 6 3.6225 4.5170 -1.3396 8.5651 3.8492 28.8693
#
#
#
# Elastic Compliance Matrix: (Units=1/GPa)
#
#
# Indices 1 2 3 4 5 6 
#
# 1 0.014390 -0.000700 -0.003061 -0.008642 0.004013 0.000191
# 2 -0.000700 0.009223 -0.001961 -0.003904 -0.000041 -0.000283
# 3 -0.003061 -0.001961 0.013347 -0.009984 0.004479 0.003675
# 4 -0.008642 -0.003904 -0.009984 0.065126 -0.011814 -0.016515
# 5 0.004013 -0.000041 0.004479 -0.011814 0.036666 -0.001673
# 6 0.000191 -0.000283 0.003675 -0.016515 -0.001673 0.039952
#
#
# Mechanical properties :
#
#
# Convention : Reuss Voigt Hill
#
# Bulk Modulus (GPa) = 39.19016 59.30816 49.24916
# Shear Modulus (GPa) = 25.16956 32.17661 28.67309
#
# Velocity S-wave (km/s) = 3.53765 3.99988 3.77585
# Velocity P-wave (km/s) = 6.01440 7.12894 6.59525
#
# Compressibility (1/GPa) = 0.02551661
#
# Stress axis : x y z
#
# Youngs Moduli (GPa) = 69.49342 108.42282 74.92393
#
# Poissons Ratio (x) = 0.07585 0.22936
# Poissons Ratio (y) = 0.04862 0.14691
# Poissons Ratio (z) = 0.21274 0.21259
#
# Static dielectric constant tensor:
#      x y z
#    x 1.735180 -0.013050 -0.011920 
#    y -0.013050 1.992110 0.227700 
#    z -0.011920 0.227700 2.013120 
# 
# From -- ./inp_files/493367.got.cif
#   From: 2010.05.17/outbox.cif.g08.bks.cpg/sg2_247_cif.got.tgz:493367.got - 2010.06.03 11:33:40.
