data_PCOD9015913
_publ_section_title
;
Structure prediction by ZEFSAII (Michael W. Deem and Ramdas Pophale) SiO2 
 PCOD9015913
Probable space group: P -1
;
_chemical_formula_sum "Si O2"
_cell_formula_units_Z 16
_cell_length_a 5.230122
_cell_length_b 7.993905
_cell_length_c 19.324077
_cell_angle_alpha 79.125105
_cell_angle_beta 89.191344
_cell_angle_gamma 120.750260
_cell_volume 675.984643
_symmetry_space_group_name_H-M "P -1"
_symmetry_group_IT_number 2
_symmetry_cell_setting 'triclinic'
loop_
_space_group_symop_operation_xyz
x,y,z
-x,-y,-z
loop_
_atom_site_type_symbol
_atom_site_label
_atom_site_fract_x
_atom_site_fract_y
_atom_site_fract_z
Si Si1 0.650545 0.460092 0.568295
Si Si2 0.432435 0.170973 0.338503
Si Si3 0.676574 0.810460 0.027898
Si Si4 0.737668 0.926065 0.317179
Si Si5 0.434676 0.229279 0.815399
Si Si6 0.736295 0.424555 0.061741
Si Si7 0.871095 0.512499 0.206549
Si Si8 0.294447 0.765854 0.531991
O O1 0.500000 0.500000 0.500000
O O2 0.422933 0.305298 0.638119
O O3 0.755176 0.325645 0.536994
O O4 0.960188 0.658198 0.573268
O O5 0.631480 0.349436 0.271623
O O6 0.513457 0.265607 0.407808
O O7 0.566360 0.027570 0.341920
O O8 0.082819 0.047858 0.330416
O O9 0.554910 0.834793 0.100312
O O10 0.659094 0.598726 0.051910
O O11 0.510631 0.778233 0.957940
O O12 0.000000 0.000000 0.000000
O O13 0.701792 0.927970 0.234212
O O14 0.222249 0.321861 0.810750
O O15 0.781631 0.387255 0.782096
O O16 0.830112 0.411747 0.139451
O O17 0.000000 0.500000 0.000000
O O18 0.500000 0.000000 0.500000
#
# Coordination Sequence:
#
# PCOD9015913 Si02
#       8
#     2   2   2   2   2   2   2   2
#     4  11  26  42  74 101 136 182 219 287 334 400
#     4  12  27  44  71 100 138 184 223 283 334 405
#     4  10  23  40  67  97 132 178 222 281 340 397
#     4  12  27  45  67 104 140 176 234 273 339 405
#     4  11  24  45  66  97 138 178 228 280 338 407
#     4  10  21  42  65  97 132 171 228 278 334 406
#     4  11  24  44  69  95 136 182 225 280 345 394
#     4  11  24  46  70 102 136 174 232 272 339 399
#
# _framework density 23.669177999999999
#
# number of rings (size 3 to 8) (size 9 to 14) (size 15 to 20)
#    0.000    1.000    2.500    3.000    7.000    2.500 
#    0.000    0.000    0.000    0.000    0.000    0.000 
#    0.000    0.000    0.000    0.000    0.000    0.000 
#
# Total GULP energy -89362.440425 kJ/mol
# GULP energy per Si atom -5585.152527 kJ/mol
# Density = 2.361531 g / cm^3
# Si number density = 23.669178 Si / 1000 Ang^3
#
#
#
# Elastic Constant Matrix: (Units=GPa)
#
#
# Indices 1 2 3 4 5 6 
#
# 1 102.3568 30.4808 5.3815 19.2139 -2.4487 31.4372
# 2 30.4808 105.0923 34.3962 9.9812 -0.2440 44.6324
# 3 5.3815 34.3962 105.3069 28.6784 -7.0822 10.5046
# 4 19.2139 9.9812 28.6784 44.3812 6.8256 7.6536
# 5 -2.4487 -0.2440 -7.0822 6.8256 31.1719 1.4444
# 6 31.4372 44.6324 10.5046 7.6536 1.4444 52.9375
#
#
#
# Elastic Compliance Matrix: (Units=1/GPa)
#
#
# Indices 1 2 3 4 5 6 
#
# 1 0.013275 -0.001260 0.002326 -0.006354 0.003252 -0.006453
# 2 -0.001260 0.016562 -0.004757 0.002208 -0.000951 -0.012565
# 3 0.002326 -0.004757 0.013889 -0.009947 0.005425 0.001164
# 4 -0.006354 0.002208 -0.009947 0.032839 -0.009905 -0.000592
# 5 0.003252 -0.000951 0.005425 -0.009905 0.035811 -0.001750
# 6 -0.006453 -0.012565 0.001164 -0.000592 -0.001750 0.033218
#
#
# Mechanical properties :
#
#
# Convention : Reuss Voigt Hill
#
# Bulk Modulus (GPa) = 27.51534 50.36365 38.93949
# Shear Modulus (GPa) = 30.28626 41.86461 36.07544
#
# Velocity S-wave (km/s) = 3.58098 4.21020 3.90827
# Velocity P-wave (km/s) = 5.36173 6.70513 6.07070
#
# Compressibility (1/GPa) = 0.03634337
#
# Stress axis : x y z
#
# Youngs Moduli (GPa) = 75.32901 60.37816 72.00140
#
# Poissons Ratio (x) = 0.07608 -0.16747
# Poissons Ratio (y) = 0.09492 0.34253
# Poissons Ratio (z) = -0.17521 0.28723
#
# Static dielectric constant tensor:
#      x y z
#    x 2.130370 0.139760 0.172720 
#    y 0.139760 2.252270 0.320040 
#    z 0.172720 0.320040 2.155120 
# 
# From -- ./inp_files/11091.got.cif
#   From: 2010.05.17/outbox.cif.g08.bks.cpg/sg2_6_cif.got.tgz:11091.got - 2010.06.03 11:33:40.
