data_PCOD9015543
_publ_section_title
;
Structure prediction by ZEFSAII (Michael W. Deem and Ramdas Pophale) SiO2 
 PCOD9015543
Probable space group: P -1
;
_chemical_formula_sum "Si O2"
_cell_formula_units_Z 14
_cell_length_a 10.909334
_cell_length_b 18.062816
_cell_length_c 5.811919
_cell_angle_alpha 114.774042
_cell_angle_beta 102.243255
_cell_angle_gamma 33.913363
_cell_volume 558.976487
_symmetry_space_group_name_H-M "P -1"
_symmetry_group_IT_number 2
_symmetry_cell_setting 'triclinic'
loop_
_space_group_symop_operation_xyz
x,y,z
-x,-y,-z
loop_
_atom_site_type_symbol
_atom_site_label
_atom_site_fract_x
_atom_site_fract_y
_atom_site_fract_z
Si Si1 0.937050 0.104984 0.438429
Si Si2 0.316997 0.972501 0.093641
Si Si3 0.994520 0.225318 0.913667
Si Si4 0.286360 0.557460 0.532446
Si Si5 0.129818 0.412685 0.691285
Si Si6 0.801517 0.807933 0.442337
Si Si7 0.463461 0.295162 0.356442
O O1 0.883736 0.214927 0.703267
O O2 0.717316 0.193004 0.333215
O O3 0.149282 0.012313 0.242528
O O4 0.000000 0.000000 0.500000
O O5 0.365769 0.030397 0.321952
O O6 0.170369 0.079749 0.954875
O O7 0.519666 0.802561 0.881416
O O8 0.149603 0.207939 0.826572
O O9 0.793647 0.382044 0.162043
O O10 0.500000 0.500000 0.500000
O O11 0.332257 0.437326 0.355481
O O12 0.051922 0.702329 0.496372
O O13 0.218470 0.271370 0.570373
O O14 0.355401 0.343151 0.630649
O O15 0.000000 0.500000 0.500000
O O16 0.000000 0.500000 0.000000
#
# Coordination Sequence:
#
# PCOD9015543 Si02
#       7
#     2   2   2   2   2   2   2
#     4  11  23  39  68 103 142 181 227 302 364 436
#     4  10  23  42  69 103 142 179 230 301 367 433
#     4  10  21  42  63  93 143 178 225 292 370 422
#     4  11  23  38  65 101 135 179 234 292 364 432
#     4  12  28  51  74 107 146 195 247 308 351 426
#     4  10  23  45  68  93 140 186 230 303 355 420
#     4  12  24  43  71 106 136 190 242 291 365 438
#
# _framework density 25.045777000000001
#
# number of rings (size 3 to 8) (size 9 to 14) (size 15 to 20)
#    0.000    1.143    2.857    3.857    4.000    5.143 
#    0.000    0.714    0.000    0.000    0.000    0.000 
#    0.000    0.000    0.000    0.000    0.000    0.000 
#
# Total GULP energy -78235.669934 kJ/mol
# GULP energy per Si atom -5588.262138 kJ/mol
# Density = 2.498877 g / cm^3
# Si number density = 25.045777 Si / 1000 Ang^3
#
#
#
# Elastic Constant Matrix: (Units=GPa)
#
#
# Indices 1 2 3 4 5 6 
#
# 1 130.1734 32.2364 46.1761 9.0856 -14.3425 24.8081
# 2 32.2364 73.3666 38.3597 20.9963 -5.3865 41.9132
# 3 46.1761 38.3597 135.8947 30.0146 -4.8563 15.9837
# 4 9.0856 20.9963 30.0146 37.6083 1.5731 -0.5878
# 5 -14.3425 -5.3865 -4.8563 1.5731 39.3368 2.9231
# 6 24.8081 41.9132 15.9837 -0.5878 2.9231 53.8514
#
#
#
# Elastic Compliance Matrix: (Units=1/GPa)
#
#
# Indices 1 2 3 4 5 6 
#
# 1 0.009806 -0.000801 -0.002583 -0.000054 0.003395 -0.003312
# 2 -0.000801 0.038323 -0.002380 -0.020081 0.007648 -0.029386
# 3 -0.002583 -0.002380 0.010321 -0.006297 0.000266 -0.000104
# 4 -0.000054 -0.020081 -0.006297 0.043404 -0.006647 0.018358
# 5 0.003395 0.007648 0.000266 -0.006647 0.028691 -0.009225
# 6 -0.003312 -0.029386 -0.000104 0.018358 -0.009225 0.043699
#
#
# Mechanical properties :
#
#
# Convention : Reuss Voigt Hill
#
# Bulk Modulus (GPa) = 21.31303 63.66436 42.48869
# Shear Modulus (GPa) = 24.82470 41.00347 32.91409
#
# Velocity S-wave (km/s) = 3.15171 4.05055 3.62906
# Velocity P-wave (km/s) = 4.66609 6.88116 5.87889
#
# Compressibility (1/GPa) = 0.04691965
#
# Stress axis : x y z
#
# Youngs Moduli (GPa) = 101.98125 26.09400 96.89303
#
# Poissons Ratio (x) = 0.02091 0.25027
# Poissons Ratio (y) = 0.08173 0.23065
# Poissons Ratio (z) = 0.26342 0.06212
#
# Static dielectric constant tensor:
#      x y z
#    x 2.061450 -0.108750 0.017070 
#    y -0.108750 2.168480 -0.030110 
#    z 0.017070 -0.030110 2.115110 
# 
# From -- ./inp_files/68508.got.cif
#   From: 2010.05.17/outbox.cif.g08.bks.cpg/sg2_35_cif.got.tgz:68508.got - 2010.06.03 11:33:40.
