data_PCOD9015687
_publ_section_title
;
Structure prediction by ZEFSAII (Michael W. Deem and Ramdas Pophale) SiO2 
 PCOD9015687
Probable space group: P -1
;
_chemical_formula_sum "Si O2"
_cell_formula_units_Z 14
_cell_length_a 5.935543
_cell_length_b 15.278584
_cell_length_c 9.028013
_cell_angle_alpha 85.846181
_cell_angle_beta 124.522642
_cell_angle_gamma 121.009153
_cell_volume 549.494961
_symmetry_space_group_name_H-M "P -1"
_symmetry_group_IT_number 2
_symmetry_cell_setting 'triclinic'
loop_
_space_group_symop_operation_xyz
x,y,z
-x,-y,-z
loop_
_atom_site_type_symbol
_atom_site_label
_atom_site_fract_x
_atom_site_fract_y
_atom_site_fract_z
Si Si1 0.995143 0.043081 0.150262
Si Si2 0.268209 0.378817 0.859831
Si Si3 0.166069 0.295160 0.500887
Si Si4 0.277215 0.676622 0.856042
Si Si5 0.702522 0.885307 0.465466
Si Si6 0.832686 0.448127 0.604481
Si Si7 0.688846 0.160896 0.940045
O O1 0.308052 0.091338 0.369422
O O2 0.665827 0.940284 0.115444
O O3 0.945059 0.136923 0.095862
O O4 0.000000 0.000000 0.000000
O O5 0.303066 0.352262 0.704906
O O6 0.924922 0.369477 0.712004
O O7 0.500000 0.500000 0.000000
O O8 0.376481 0.314540 0.006355
O O9 0.174871 0.191748 0.507004
O O10 0.435997 0.378966 0.469888
O O11 0.819351 0.277445 0.323119
O O12 0.999728 0.549603 0.762403
O O13 0.252134 0.733436 0.982375
O O14 0.370736 0.846077 0.256102
O O15 0.000000 0.000000 0.500000
O O16 0.000000 0.500000 0.500000
#
# Coordination Sequence:
#
# PCOD9015687 Si02
#       7
#     2   2   2   2   2   2   2
#     4  10  22  41  65  95 128 173 225 280 342 404
#     4  10  24  44  65 102 139 177 233 283 336 412
#     4  12  23  45  71  97 141 187 223 286 347 401
#     4  11  22  42  70  96 132 182 224 278 339 407
#     4  10  22  43  70  97 135 175 225 285 342 402
#     4  11  25  44  65 103 142 178 231 282 336 409
#     4  10  21  42  64  94 131 171 224 282 337 401
#
# _framework density 25.477941000000001
#
# number of rings (size 3 to 8) (size 9 to 14) (size 15 to 20)
#    0.000    1.429    4.286    0.429    0.000    4.000 
#    5.143    0.000    0.000    0.000    0.000    0.000 
#    0.000    0.000    0.000    0.000    0.000    0.000 
#
# Total GULP energy -78240.526234 kJ/mol
# GULP energy per Si atom -5588.609017 kJ/mol
# Density = 2.541995 g / cm^3
# Si number density = 25.477941 Si / 1000 Ang^3
#
#
#
# Elastic Constant Matrix: (Units=GPa)
#
#
# Indices 1 2 3 4 5 6 
#
# 1 55.4611 47.5291 39.8676 -4.0773 7.1678 -7.5676
# 2 47.5291 125.0624 31.7563 3.0380 -6.6445 -9.1137
# 3 39.8676 31.7563 194.0699 7.2555 -9.7740 -5.7488
# 4 -4.0773 3.0380 7.2555 33.1605 -19.8794 -12.4339
# 5 7.1678 -6.6445 -9.7740 -19.8794 46.6215 -1.8863
# 6 -7.5676 -9.1137 -5.7488 -12.4339 -1.8863 38.7572
#
#
#
# Elastic Compliance Matrix: (Units=1/GPa)
#
#
# Indices 1 2 3 4 5 6 
#
# 1 0.033250 -0.011405 -0.005298 0.004351 -0.005825 0.004137
# 2 -0.011405 0.012460 0.000518 -0.000154 0.003609 0.000906
# 3 -0.005298 0.000518 0.006277 -0.001153 0.001702 -0.000268
# 4 0.004351 -0.000154 -0.001153 0.050411 0.021285 0.017851
# 5 -0.005825 0.003609 0.001702 0.021285 0.032631 0.008380
# 6 0.004137 0.000906 -0.000268 0.017851 0.008380 0.032918
#
#
# Mechanical properties :
#
#
# Convention : Reuss Voigt Hill
#
# Bulk Modulus (GPa) = 50.97183 68.09996 59.53589
# Shear Modulus (GPa) = 24.17143 40.73719 32.45431
#
# Velocity S-wave (km/s) = 3.08347 4.00299 3.57293
# Velocity P-wave (km/s) = 5.72073 6.93918 6.35921
#
# Compressibility (1/GPa) = 0.01961868
#
# Stress axis : x y z
#
# Youngs Moduli (GPa) = 30.07520 80.25502 159.30809
#
# Poissons Ratio (x) = 0.91530 0.84398
# Poissons Ratio (y) = 0.34300 -0.08258
# Poissons Ratio (z) = 0.15933 -0.04160
#
# Static dielectric constant tensor:
#      x y z
#    x 2.020100 0.015890 -0.032720 
#    y 0.015890 2.012090 -0.030090 
#    z -0.032720 -0.030090 2.028450 
# 
# From -- ./inp_files/135438.got.cif
#   From: 2010.05.17/outbox.cif.g08.bks.cpg/sg2_68_cif.got.tgz:135438.got - 2010.06.03 11:33:40.
