data_PCOD9015556
_publ_section_title
;
Structure prediction by ZEFSAII (Michael W. Deem and Ramdas Pophale) SiO2 
 PCOD9015556
Probable space group: P -1
;
_chemical_formula_sum "Si O2"
_cell_formula_units_Z 16
_cell_length_a 8.322709
_cell_length_b 8.920177
_cell_length_c 13.065750
_cell_angle_alpha 93.680263
_cell_angle_beta 108.519751
_cell_angle_gamma 48.220658
_cell_volume 670.811288
_symmetry_space_group_name_H-M "P -1"
_symmetry_group_IT_number 2
_symmetry_cell_setting 'triclinic'
loop_
_space_group_symop_operation_xyz
x,y,z
-x,-y,-z
loop_
_atom_site_type_symbol
_atom_site_label
_atom_site_fract_x
_atom_site_fract_y
_atom_site_fract_z
Si Si1 0.639645 0.295056 0.404893
Si Si2 0.246277 0.483133 0.485401
Si Si3 0.017348 0.146036 0.205223
Si Si4 0.383917 0.187323 0.895238
Si Si5 0.242431 0.714441 0.229710
Si Si6 0.783193 0.015023 0.242020
Si Si7 0.883653 0.496924 0.319756
Si Si8 0.893153 0.804078 0.997356
O O1 0.495635 0.335638 0.476816
O O2 0.819400 0.307898 0.484240
O O3 0.471169 0.492993 0.302450
O O4 0.719746 0.109865 0.344684
O O5 0.238909 0.410471 0.591501
O O6 0.089158 0.490347 0.374514
O O7 0.808217 0.150491 0.181024
O O8 0.996181 0.269628 0.301968
O O9 0.032816 0.232353 0.107658
O O10 0.235528 0.899508 0.235352
O O11 0.283007 0.363644 0.801665
O O12 0.369998 0.029882 0.831228
O O13 0.655235 0.048207 0.966229
O O14 0.210487 0.275983 0.962594
O O15 0.045266 0.797913 0.277364
O O16 0.114125 0.732491 0.102114
#
# Coordination Sequence:
#
# PCOD9015556 Si02
#       8
#     2   2   2   2   2   2   2   2
#     4  11  21  44  70  93 126 174 211 267 324 370
#     4  10  23  40  67  93 126 167 220 261 320 387
#     4  10  22  40  65  92 135 163 220 259 306 396
#     4  10  23  41  66  91 135 167 208 267 319 375
#     4   9  21  41  66  93 131 166 202 272 309 370
#     4   9  21  41  63  96 124 167 216 262 299 395
#     4  11  23  45  62  94 135 166 205 279 322 363
#     4  10  21  42  63  95 128 169 215 257 314 388
#
# _framework density 23.851716
#
# number of rings (size 3 to 8) (size 9 to 14) (size 15 to 20)
#    0.750    1.250    1.250    1.875    3.500    0.500 
#    6.750   16.250    0.000    0.000    0.000    0.000 
#    0.000    0.000    0.000    0.000    0.000    0.000 
#
# Total GULP energy -89132.919915 kJ/mol
# GULP energy per Si atom -5570.807495 kJ/mol
# Density = 2.379743 g / cm^3
# Si number density = 23.851716 Si / 1000 Ang^3
#
#
#
# Elastic Constant Matrix: (Units=GPa)
#
#
# Indices 1 2 3 4 5 6 
#
# 1 57.2747 15.1638 16.8862 11.7273 -6.1671 8.3042
# 2 15.1638 58.5725 29.9945 8.4492 0.6793 -1.2897
# 3 16.8862 29.9945 85.1336 3.7443 -6.1275 -9.5701
# 4 11.7273 8.4492 3.7443 51.6526 -4.0070 -1.3584
# 5 -6.1671 0.6793 -6.1275 -4.0070 56.4055 3.1752
# 6 8.3042 -1.2897 -9.5701 -1.3584 3.1752 22.9670
#
#
#
# Elastic Compliance Matrix: (Units=1/GPa)
#
#
# Indices 1 2 3 4 5 6 
#
# 1 0.022176 -0.003301 -0.004057 -0.004297 0.002308 -0.010467
# 2 -0.003301 0.021942 -0.007133 -0.002455 -0.001548 -0.000478
# 3 -0.004057 -0.007133 0.015944 0.001213 0.001030 0.007639
# 4 -0.004297 -0.002455 0.001213 0.020806 0.001000 0.003014
# 5 0.002308 -0.001548 0.001030 0.001000 0.018350 -0.002970
# 6 -0.010467 -0.000478 0.007639 0.003014 -0.002970 0.051070
#
#
# Mechanical properties :
#
#
# Convention : Reuss Voigt Hill
#
# Bulk Modulus (GPa) = 32.17580 36.11885 34.14733
# Shear Modulus (GPa) = 26.36722 35.46746 30.91734
#
# Velocity S-wave (km/s) = 3.32846 3.86035 3.60423
# Velocity P-wave (km/s) = 5.31890 5.91994 5.62745
#
# Compressibility (1/GPa) = 0.03107926
#
# Stress axis : x y z
#
# Youngs Moduli (GPa) = 45.09431 45.57520 62.72082
#
# Poissons Ratio (x) = 0.15043 0.25447
# Poissons Ratio (y) = 0.14885 0.44739
# Poissons Ratio (z) = 0.18296 0.32509
#
# Static dielectric constant tensor:
#      x y z
#    x 2.008600 0.031700 -0.014610 
#    y 0.031700 1.918660 -0.053510 
#    z -0.014610 -0.053510 1.953630 
# 
# From -- ./inp_files/495254.got.cif
#   From: 2010.05.17/outbox.cif.g08.bks.cpg/sg2_248_cif.got.tgz:495254.got - 2010.06.03 11:33:40.
