data_PCOD9015506
_publ_section_title
;
Structure prediction by ZEFSAII (Michael W. Deem and Ramdas Pophale) SiO2 
 PCOD9015506
Probable space group: P -1
;
_chemical_formula_sum "Si O2"
_cell_formula_units_Z 16
_cell_length_a 11.998888
_cell_length_b 11.822515
_cell_length_c 6.606058
_cell_angle_alpha 99.141295
_cell_angle_beta 123.304210
_cell_angle_gamma 81.070562
_cell_volume 770.634320
_symmetry_space_group_name_H-M "P -1"
_symmetry_group_IT_number 2
_symmetry_cell_setting 'triclinic'
loop_
_space_group_symop_operation_xyz
x,y,z
-x,-y,-z
loop_
_atom_site_type_symbol
_atom_site_label
_atom_site_fract_x
_atom_site_fract_y
_atom_site_fract_z
Si Si1 0.826645 0.340666 0.600664
Si Si2 0.737036 0.508147 0.195879
Si Si3 0.657587 0.966169 0.634202
Si Si4 0.874706 0.646008 0.044525
Si Si5 0.858496 0.078732 0.591822
Si Si6 0.670607 0.707391 0.496508
Si Si7 0.581433 0.397148 0.670337
Si Si8 0.848085 0.907422 0.162331
O O1 0.800517 0.421080 0.402616
O O2 0.833162 0.206385 0.511201
O O3 0.709505 0.360879 0.652585
O O4 0.968036 0.366670 0.846748
O O5 0.835690 0.549812 0.134162
O O6 0.682913 0.623431 0.293042
O O7 0.626618 0.444980 0.943931
O O8 0.686915 0.841432 0.520114
O O9 0.500000 0.000000 0.500000
O O10 0.746088 0.055953 0.636502
O O11 0.720237 0.947473 0.913560
O O12 0.849080 0.771391 0.160037
O O13 0.780130 0.655607 0.755455
O O14 0.013650 0.074524 0.815962
O O15 0.851766 0.982046 0.387500
O O16 0.522085 0.698758 0.434393
O O17 0.500000 0.500000 0.500000
#
# Coordination Sequence:
#
# PCOD9015506 Si02
#       8
#     2   2   2   2   2   2   2   2
#     4  11  25  39  64  94 126 163 207 254 302 364
#     4  12  23  40  67  89 122 164 210 248 310 364
#     4  11  23  40  63  94 125 159 204 256 308 360
#     4  10  22  42  63  94 127 158 204 260 307 360
#     4  10  21  42  63  92 123 163 207 249 303 364
#     4  11  24  42  65  90 125 166 205 253 311 365
#     4  12  24  44  60  87 126 165 203 253 304 366
#     4   9  21  41  66  89 124 163 203 252 307 363
#
# _framework density 20.762118000000001
#
# number of rings (size 3 to 8) (size 9 to 14) (size 15 to 20)
#    0.000    1.250    2.500    2.625    0.000    5.500 
#    0.000    2.500    0.000    0.000    0.000    0.000 
#    0.000    0.000    0.000    0.000    0.000    0.000 
#
# Total GULP energy -89415.673471 kJ/mol
# GULP energy per Si atom -5588.479592 kJ/mol
# Density = 2.071486 g / cm^3
# Si number density = 20.762118 Si / 1000 Ang^3
#
#
#
# Elastic Constant Matrix: (Units=GPa)
#
#
# Indices 1 2 3 4 5 6 
#
# 1 114.8779 14.3242 30.4629 -20.0545 25.9135 6.5117
# 2 14.3242 70.0381 31.9843 -7.1553 5.6623 15.4144
# 3 30.4629 31.9843 94.0348 0.3615 26.9789 -9.2732
# 4 -20.0545 -7.1553 0.3615 27.6674 -0.9619 1.8667
# 5 25.9135 5.6623 26.9789 -0.9619 30.9282 1.2157
# 6 6.5117 15.4144 -9.2732 1.8667 1.2157 37.2969
#
#
#
# Elastic Compliance Matrix: (Units=1/GPa)
#
#
# Indices 1 2 3 4 5 6 
#
# 1 0.013051 0.000899 -0.002473 0.009663 -0.008505 -0.003471
# 2 0.000899 0.021946 -0.010459 0.007474 0.005071 -0.012367
# 3 -0.002473 -0.010459 0.020115 -0.005962 -0.014158 0.010515
# 4 0.009663 0.007474 -0.005962 0.045642 -0.002512 -0.008461
# 5 -0.008505 0.005071 -0.014158 -0.002512 0.051026 -0.005668
# 6 -0.003471 -0.012367 0.010515 -0.008461 -0.005668 0.035752
#
#
# Mechanical properties :
#
#
# Convention : Reuss Voigt Hill
#
# Bulk Modulus (GPa) = 32.21040 48.05483 40.13262
# Shear Modulus (GPa) = 22.52812 32.65712 27.59262
#
# Velocity S-wave (km/s) = 3.29760 3.97031 3.64948
# Velocity P-wave (km/s) = 5.48147 6.64932 6.09344
#
# Compressibility (1/GPa) = 0.03104587
#
# Stress axis : x y z
#
# Youngs Moduli (GPa) = 76.62365 45.56715 49.71476
#
# Poissons Ratio (x) = -0.04096 0.12294
# Poissons Ratio (y) = -0.06888 0.51995
# Poissons Ratio (z) = 0.18948 0.47657
#
# Static dielectric constant tensor:
#      x y z
#    x 1.758240 0.004600 0.004560 
#    y 0.004600 1.750940 0.017700 
#    z 0.004560 0.017700 1.710030 
# 
# From -- ./inp_files/71492.got.cif
#   From: 2010.05.17/outbox.cif.g08.bks.cpg/sg2_36_cif.got.tgz:71492.got - 2010.06.03 11:33:40.
