data_PCOD9015313
_publ_section_title
;
Structure prediction by ZEFSAII (Michael W. Deem and Ramdas Pophale) SiO2 
 PCOD9015313
Probable space group: P -1
;
_chemical_formula_sum "Si O2"
_cell_formula_units_Z 12
_cell_length_a 8.545384
_cell_length_b 13.882299
_cell_length_c 5.206439
_cell_angle_alpha 84.685551
_cell_angle_beta 124.758149
_cell_angle_gamma 114.055894
_cell_volume 455.245814
_symmetry_space_group_name_H-M "P -1"
_symmetry_group_IT_number 2
_symmetry_cell_setting 'triclinic'
loop_
_space_group_symop_operation_xyz
x,y,z
-x,-y,-z
loop_
_atom_site_type_symbol
_atom_site_label
_atom_site_fract_x
_atom_site_fract_y
_atom_site_fract_z
Si Si1 0.677028 0.438000 0.899225
Si Si2 0.400547 0.096264 0.673468
Si Si3 0.159578 0.716396 0.752030
Si Si4 0.398107 0.363165 0.152798
Si Si5 0.288384 0.881521 0.458739
Si Si6 0.084248 0.178349 0.213306
O O1 0.583428 0.405552 0.533585
O O2 0.722222 0.560604 0.954933
O O3 0.851855 0.396940 0.146267
O O4 0.495758 0.377105 0.958988
O O5 0.492895 0.100414 0.470256
O O6 0.202396 0.122845 0.496557
O O7 0.322102 0.969696 0.687690
O O8 0.605915 0.192926 0.964592
O O9 0.173307 0.756659 0.463707
O O10 0.977571 0.740761 0.701177
O O11 0.246810 0.244650 0.126498
O O12 0.132410 0.897709 0.106642
#
# Coordination Sequence:
#
# PCOD9015313 Si02
#       6
#     2   2   2   2   2   2
#     4  10  22  42  68  93 127 170 213 257 322 386
#     4  10  21  42  59  85 127 169 209 263 316 380
#     4  11  23  37  62  93 123 166 212 263 319 377
#     4  10  22  42  68  94 125 172 211 259 322 382
#     4  10  23  38  61  89 124 166 215 262 316 378
#     4  11  23  37  62  94 124 165 213 263 319 375
#
# _framework density 26.359385
#
# number of rings (size 3 to 8) (size 9 to 14) (size 15 to 20)
#    0.000    1.667    1.667    2.000    4.667    2.667 
#    0.000    0.833    0.000    0.000    0.000    0.000 
#    0.000    0.000    0.000    0.000    0.000    0.000 
#
# Total GULP energy -67115.337690 kJ/mol
# GULP energy per Si atom -5592.944807 kJ/mol
# Density = 2.629939 g / cm^3
# Si number density = 26.359385 Si / 1000 Ang^3
#
#
#
# Elastic Constant Matrix: (Units=GPa)
#
#
# Indices 1 2 3 4 5 6 
#
# 1 70.7373 21.1713 32.0899 -8.5646 22.2438 -17.2943
# 2 21.1713 84.8746 15.1701 -21.9303 9.5603 -16.2067
# 3 32.0899 15.1701 72.5801 -11.7828 18.0299 -15.2132
# 4 -8.5646 -21.9303 -11.7828 38.7916 -4.9098 11.3993
# 5 22.2438 9.5603 18.0299 -4.9098 35.1416 -18.3494
# 6 -17.2943 -16.2067 -15.2132 11.3993 -18.3494 47.0085
#
#
#
# Elastic Compliance Matrix: (Units=1/GPa)
#
#
# Indices 1 2 3 4 5 6 
#
# 1 0.020822 -0.002972 -0.006257 -0.000473 -0.008490 0.001411
# 2 -0.002972 0.014787 -0.000194 0.006986 0.000135 0.002301
# 3 -0.006257 -0.000194 0.018437 0.003229 -0.004427 0.001087
# 4 -0.000473 0.006986 0.003229 0.031897 -0.001417 -0.005008
# 5 -0.008490 0.000135 -0.004427 -0.001417 0.042317 0.012352
# 6 0.001411 0.002301 0.001087 -0.005008 0.012352 0.028973
#
#
# Mechanical properties :
#
#
# Convention : Reuss Voigt Hill
#
# Bulk Modulus (GPa) = 28.40849 40.56162 34.48506
# Shear Modulus (GPa) = 26.62237 34.83905 30.73071
#
# Velocity S-wave (km/s) = 3.18146 3.63946 3.41814
# Velocity P-wave (km/s) = 4.92913 5.75171 5.35624
#
# Compressibility (1/GPa) = 0.03520075
#
# Stress axis : x y z
#
# Youngs Moduli (GPa) = 48.02521 67.62621 54.23995
#
# Poissons Ratio (x) = 0.20098 0.33937
# Poissons Ratio (y) = 0.14273 0.01052
# Poissons Ratio (z) = 0.30048 0.01312
#
# Static dielectric constant tensor:
#      x y z
#    x 2.037040 0.009160 -0.050290 
#    y 0.009160 2.094890 -0.014350 
#    z -0.050290 -0.014350 2.157770 
# 
# From -- ./inp_files/3114.got.cif
#   From: 2010.05.17/outbox.cif.g08.bks.cpg/sg2_2_cif.got.tgz:3114.got - 2010.06.03 11:33:40.
