data_PCOD9015039
_publ_section_title
;
Structure prediction by ZEFSAII (Michael W. Deem and Ramdas Pophale) SiO2 
 PCOD9015039
Probable space group: P -1
;
_chemical_formula_sum "Si O2"
_cell_formula_units_Z 12
_cell_length_a 16.544772
_cell_length_b 9.667337
_cell_length_c 8.741186
_cell_angle_alpha 83.591635
_cell_angle_beta 97.009527
_cell_angle_gamma 26.573758
_cell_volume 538.600068
_symmetry_space_group_name_H-M "P -1"
_symmetry_group_IT_number 2
_symmetry_cell_setting 'triclinic'
loop_
_space_group_symop_operation_xyz
x,y,z
-x,-y,-z
loop_
_atom_site_type_symbol
_atom_site_label
_atom_site_fract_x
_atom_site_fract_y
_atom_site_fract_z
Si Si1 0.952431 0.166895 0.282805
Si Si2 0.328433 0.154303 0.390850
Si Si3 0.336725 0.244303 0.067591
Si Si4 0.073699 0.086462 0.641097
Si Si5 0.562515 0.316318 0.384467
Si Si6 0.772407 0.320296 0.838128
O O1 0.949974 0.230891 0.442472
O O2 0.830905 0.210852 0.240131
O O3 0.878287 0.401625 0.119349
O O4 0.177274 0.763976 0.322020
O O5 0.346059 0.112710 0.215093
O O6 0.096138 0.577709 0.327245
O O7 0.500000 0.000000 0.500000
O O8 0.363460 0.952868 0.507740
O O9 0.357375 0.351546 0.159657
O O10 0.500000 0.000000 0.000000
O O11 0.253686 0.901476 0.641968
O O12 0.500000 0.500000 0.500000
O O13 0.363895 0.603666 0.190596
O O14 0.000000 0.000000 0.000000
#
# Coordination Sequence:
#
# PCOD9015039 Si02
#       6
#     2   2   2   2   2   2
#     4  10  21  41  70  98 136 187 225 282 352 418
#     4  12  24  44  71 101 139 190 237 280 351 426
#     4  11  23  39  70  98 132 180 245 277 333 422
#     4  11  23  41  71 103 140 181 234 286 347 415
#     4  12  25  43  71 107 141 180 234 298 346 413
#     4  10  21  44  68  95 134 184 228 281 348 420
#
# _framework density 22.279983000000001
#
# number of rings (size 3 to 8) (size 9 to 14) (size 15 to 20)
#    0.000    1.000    5.000    1.500    4.667    0.000 
#    0.000    4.167    0.000    0.000    0.000    0.000 
#    0.000    0.000    0.000    0.000    0.000    0.000 
#
# Total GULP energy -66820.270636 kJ/mol
# GULP energy per Si atom -5568.355886 kJ/mol
# Density = 2.222927 g / cm^3
# Si number density = 22.279983 Si / 1000 Ang^3
#
#
#
# Elastic Constant Matrix: (Units=GPa)
#
#
# Indices 1 2 3 4 5 6 
#
# 1 130.2071 28.1128 22.7284 -13.5290 -7.2902 -30.4529
# 2 28.1128 110.5008 15.8943 22.7209 1.8253 -25.0302
# 3 22.7284 15.8943 95.6287 5.5254 -13.4836 -11.4480
# 4 -13.5290 22.7209 5.5254 37.1147 -2.1916 -4.4608
# 5 -7.2902 1.8253 -13.4836 -2.1916 37.5538 5.1809
# 6 -30.4529 -25.0302 -11.4480 -4.4608 5.1809 36.1366
#
#
#
# Elastic Compliance Matrix: (Units=1/GPa)
#
#
# Indices 1 2 3 4 5 6 
#
# 1 0.011017 -0.002139 -0.001550 0.006573 0.000968 0.007984
# 2 -0.002139 0.012779 -0.000789 -0.007896 -0.002636 0.006203
# 3 -0.001550 -0.000789 0.011699 -0.001469 0.003695 0.001143
# 4 0.006573 -0.007896 -0.001469 0.034975 0.002686 0.003537
# 5 0.000968 -0.002636 0.003695 0.002686 0.028932 -0.003656
# 6 0.007984 0.006203 0.001143 0.003537 -0.003656 0.040020
#
#
# Mechanical properties :
#
#
# Convention : Reuss Voigt Hill
#
# Bulk Modulus (GPa) = 37.67915 52.20083 44.93999
# Shear Modulus (GPa) = 31.80143 40.13442 35.96793
#
# Velocity S-wave (km/s) = 3.78213 4.24886 4.02227
# Velocity P-wave (km/s) = 6.00176 6.89570 6.46420
#
# Compressibility (1/GPa) = 0.02653988
#
# Stress axis : x y z
#
# Youngs Moduli (GPa) = 90.76898 78.25152 85.47562
#
# Poissons Ratio (x) = 0.16736 0.13252
# Poissons Ratio (y) = 0.19413 0.06741
# Poissons Ratio (z) = 0.14073 0.06171
#
# Static dielectric constant tensor:
#      x y z
#    x 1.859080 -0.025780 -0.031960 
#    y -0.025780 2.024350 -0.099010 
#    z -0.031960 -0.099010 1.992480 
# 
# From -- ./inp_files/155016.got.cif
#   From: 2010.05.17/outbox.cif.g08.bks.cpg/sg2_78_cif.got.tgz:155016.got - 2010.06.03 11:33:40.
