data_PCOD9015441
_publ_section_title
;
Structure prediction by ZEFSAII (Michael W. Deem and Ramdas Pophale) SiO2 
 PCOD9015441
Probable space group: P -1
;
_chemical_formula_sum "Si O2"
_cell_formula_units_Z 15
_cell_length_a 16.173242
_cell_length_b 5.095619
_cell_length_c 8.472834
_cell_angle_alpha 59.672669
_cell_angle_beta 90.856988
_cell_angle_gamma 88.833412
_cell_volume 602.331531
_symmetry_space_group_name_H-M "P -1"
_symmetry_group_IT_number 2
_symmetry_cell_setting 'triclinic'
loop_
_space_group_symop_operation_xyz
x,y,z
-x,-y,-z
loop_
_atom_site_type_symbol
_atom_site_label
_atom_site_fract_x
_atom_site_fract_y
_atom_site_fract_z
Si Si1 0.500000 0.500000 0.500000
Si Si2 0.926336 0.292545 0.498990
Si Si3 0.709701 0.424185 0.764491
Si Si4 0.174819 0.888705 0.937900
Si Si5 0.652902 0.105117 0.556779
Si Si6 0.990861 0.176011 0.179656
Si Si7 0.460364 0.673292 0.092246
Si Si8 0.230495 0.534376 0.736054
O O1 0.558656 0.183436 0.571194
O O2 0.481785 0.518274 0.306014
O O3 0.953176 0.206983 0.346264
O O4 0.835468 0.433981 0.421184
O O5 0.000000 0.500000 0.500000
O O6 0.928007 0.025198 0.711776
O O7 0.699288 0.192541 0.692070
O O8 0.639553 0.335467 0.916870
O O9 0.684072 0.769203 0.608589
O O10 0.799589 0.374241 0.858180
O O11 0.077940 0.976277 0.886550
O O12 0.203397 0.754046 0.811127
O O13 0.223665 0.187454 0.891713
O O14 0.682529 0.355059 0.356752
O O15 0.000000 0.500000 0.000000
O O16 0.500000 0.500000 0.000000
O O17 0.500000 0.000000 0.000000
#
# Coordination Sequence:
#
# PCOD9015441 Si02
#       8
#     1   2   2   2   2   2   2   2
#     4  10  26  46  70 102 142 168 250 280 340 436
#     4  10  21  42  62  93 136 165 233 275 319 415
#     4  11  25  44  65 101 136 165 232 281 331 420
#     4  11  24  43  65  98 135 170 229 272 329 421
#     4  11  25  44  69  98 132 180 218 288 348 391
#     4  10  23  40  65  95 129 181 217 277 339 386
#     4  11  25  43  71 100 135 183 222 285 356 404
#     4  11  24  42  68  95 131 184 217 275 350 390
#
# _framework density 24.903227999999999
#
# number of rings (size 3 to 8) (size 9 to 14) (size 15 to 20)
#    0.000    1.333    1.333    3.200    5.600    6.400 
#    0.000    0.000    0.000    0.000    0.000    0.000 
#    0.000    0.000    0.000    0.000    0.000    0.000 
#
# Total GULP energy -83594.349677 kJ/mol
# GULP energy per Si atom -5572.956645 kJ/mol
# Density = 2.484655 g / cm^3
# Si number density = 24.903228 Si / 1000 Ang^3
#
#
#
# Elastic Constant Matrix: (Units=GPa)
#
#
# Indices 1 2 3 4 5 6 
#
# 1 44.6626 11.7451 16.5517 -3.5815 9.5708 -1.7521
# 2 11.7451 98.7207 15.2071 -7.0354 -8.6989 5.7558
# 3 16.5517 15.2071 124.3391 -9.5271 26.8845 -4.7698
# 4 -3.5815 -7.0354 -9.5271 49.0417 2.4592 -6.1419
# 5 9.5708 -8.6989 26.8845 2.4592 40.6804 -7.9297
# 6 -1.7521 5.7558 -4.7698 -6.1419 -7.9297 22.3808
#
#
#
# Elastic Compliance Matrix: (Units=1/GPa)
#
#
# Indices 1 2 3 4 5 6 
#
# 1 0.025144 -0.003166 -0.001643 0.001449 -0.005417 0.000911
# 2 -0.003166 0.011297 -0.001848 0.000583 0.003960 -0.001984
# 3 -0.001643 -0.001848 0.010111 0.002000 -0.006678 0.000684
# 4 0.001449 0.000583 0.002000 0.021776 -0.001733 0.005751
# 5 -0.005417 0.003960 -0.006678 -0.001733 0.032838 0.008293
# 6 0.000911 -0.001984 0.000684 0.005751 0.008293 0.049925
#
#
# Mechanical properties :
#
#
# Convention : Reuss Voigt Hill
#
# Bulk Modulus (GPa) = 30.08486 39.41446 34.74966
# Shear Modulus (GPa) = 28.49286 37.36849 32.93067
#
# Velocity S-wave (km/s) = 3.38619 3.87789 3.64035
# Velocity P-wave (km/s) = 5.23405 5.99267 5.62616
#
# Compressibility (1/GPa) = 0.03323931
#
# Stress axis : x y z
#
# Youngs Moduli (GPa) = 39.77078 88.51899 98.90655
#
# Poissons Ratio (x) = 0.28021 0.16248
# Poissons Ratio (y) = 0.12590 0.18276
# Poissons Ratio (z) = 0.06533 0.16357
#
# Static dielectric constant tensor:
#      x y z
#    x 2.138430 -0.019850 0.003640 
#    y -0.019850 2.014980 -0.010930 
#    z 0.003640 -0.010930 1.969800 
# 
# From -- ./inp_files/323215.got.cif
#   From: 2010.05.17/outbox.cif.g08.bks.cpg/sg2_162_cif.got.tgz:323215.got - 2010.06.03 11:33:40.
