data_PCOD9015618
_publ_section_title
;
Structure prediction by ZEFSAII (Michael W. Deem and Ramdas Pophale) SiO2 
 PCOD9015618
Probable space group: P -1
;
_chemical_formula_sum "Si O2"
_cell_formula_units_Z 16
_cell_length_a 14.023816
_cell_length_b 18.273034
_cell_length_c 17.264580
_cell_angle_alpha 151.874941
_cell_angle_beta 154.829931
_cell_angle_gamma 44.423462
_cell_volume 805.399785
_symmetry_space_group_name_H-M "P -1"
_symmetry_group_IT_number 2
_symmetry_cell_setting 'triclinic'
loop_
_space_group_symop_operation_xyz
x,y,z
-x,-y,-z
loop_
_atom_site_type_symbol
_atom_site_label
_atom_site_fract_x
_atom_site_fract_y
_atom_site_fract_z
Si Si1 0.591397 0.895766 0.279572
Si Si2 0.356981 0.857873 0.824528
Si Si3 0.966343 0.164406 0.160629
Si Si4 0.738777 0.254811 0.647808
Si Si5 0.742568 0.698831 0.640626
Si Si6 0.418652 0.325922 0.077496
Si Si7 0.005572 0.055721 0.251724
Si Si8 0.922688 0.372782 0.732091
O O1 0.724438 0.073952 0.495755
O O2 0.760694 0.901759 0.482171
O O3 0.560237 0.743313 0.056317
O O4 0.319748 0.872404 0.082705
O O5 0.547175 0.802226 0.956643
O O6 0.168604 0.702984 0.489575
O O7 0.207542 0.920467 0.833557
O O8 0.500000 0.000000 0.000000
O O9 0.120269 0.304491 0.341496
O O10 0.054994 0.177964 0.327108
O O11 0.000000 0.000000 0.000000
O O12 0.503056 0.270392 0.527488
O O13 0.726350 0.279744 0.569084
O O14 0.982486 0.422464 0.006580
O O15 0.636090 0.512731 0.426506
O O16 0.909481 0.860981 0.967263
O O17 0.158626 0.338305 0.898849
#
# Coordination Sequence:
#
# PCOD9015618 Si02
#       8
#     2   2   2   2   2   2   2   2
#     4  12  22  39  65  91 124 165 207 258 312 371
#     4  12  24  40  64  92 130 167 207 253 313 372
#     4  10  21  43  63  89 127 164 209 261 310 361
#     4  10  21  42  64  88 132 163 207 258 312 369
#     4  10  22  44  65  88 127 167 208 265 306 365
#     4  11  24  41  64  94 128 163 209 255 317 365
#     4  11  23  40  63  93 123 164 212 251 310 380
#     4  10  23  41  61  95 127 166 204 259 311 370
#
# _framework density 19.865908999999998
#
# number of rings (size 3 to 8) (size 9 to 14) (size 15 to 20)
#    0.000    1.250    5.000    1.500    3.500    3.500 
#    0.000    3.125    0.000    0.000    0.000    0.000 
#    0.000    0.000    0.000    0.000    0.000    0.000 
#
# Total GULP energy -89333.412522 kJ/mol
# GULP energy per Si atom -5583.338283 kJ/mol
# Density = 1.982069 g / cm^3
# Si number density = 19.865909 Si / 1000 Ang^3
#
#
#
# Elastic Constant Matrix: (Units=GPa)
#
#
# Indices 1 2 3 4 5 6 
#
# 1 100.6677 3.1110 17.3556 1.4980 -5.4207 -6.5986
# 2 3.1110 45.7783 11.9421 -5.4473 -3.6975 -1.2821
# 3 17.3556 11.9421 66.0620 -3.9201 -18.6347 1.2678
# 4 1.4980 -5.4473 -3.9201 25.8775 -0.3113 -5.9225
# 5 -5.4207 -3.6975 -18.6347 -0.3113 33.5368 -3.3228
# 6 -6.5986 -1.2821 1.2678 -5.9225 -3.3228 28.4423
#
#
#
# Elastic Compliance Matrix: (Units=1/GPa)
#
#
# Indices 1 2 3 4 5 6 
#
# 1 0.010602 0.000051 -0.002744 -0.000431 0.000443 0.002546
# 2 0.000051 0.023548 -0.003806 0.004927 0.000769 0.002359
# 3 -0.002744 -0.003806 0.019512 0.002433 0.010001 -0.000003
# 4 -0.000431 0.004927 0.002433 0.042210 0.003126 0.009168
# 5 0.000443 0.000769 0.010001 0.003126 0.036011 0.004550
# 6 0.002546 0.002359 -0.000003 0.009168 0.004550 0.038297
#
#
# Mechanical properties :
#
#
# Convention : Reuss Voigt Hill
#
# Bulk Modulus (GPa) = 24.59188 30.81393 27.70290
# Shear Modulus (GPa) = 25.41509 29.57794 27.49651
#
# Velocity S-wave (km/s) = 3.58066 3.86279 3.72439
# Velocity P-wave (km/s) = 5.43145 5.95310 5.69825
#
# Compressibility (1/GPa) = 0.04066383
#
# Stress axis : x y z
#
# Youngs Moduli (GPa) = 94.31859 42.46595 51.25111
#
# Poissons Ratio (x) = -0.00217 0.14064
# Poissons Ratio (y) = -0.00483 0.19508
# Poissons Ratio (z) = 0.25883 0.16164
#
# Static dielectric constant tensor:
#      x y z
#    x 1.734340 0.008010 0.007860 
#    y 0.008010 1.688190 0.033690 
#    z 0.007860 0.033690 1.733470 
# 
# From -- ./inp_files/274909.got.cif
#   From: 2010.05.17/outbox.cif.g08.bks.cpg/sg2_138_cif.got.tgz:274909.got - 2010.06.03 11:33:40.
