data_PCOD9015731
_publ_section_title
;
Structure prediction by ZEFSAII (Michael W. Deem and Ramdas Pophale) SiO2 
 PCOD9015731
Probable space group: P -1
;
_chemical_formula_sum "Si O2"
_cell_formula_units_Z 14
_cell_length_a 8.711396
_cell_length_b 22.715071
_cell_length_c 27.943755
_cell_angle_alpha 10.942367
_cell_angle_beta 142.450234
_cell_angle_gamma 142.238607
_cell_volume 636.148546
_symmetry_space_group_name_H-M "P -1"
_symmetry_group_IT_number 2
_symmetry_cell_setting 'triclinic'
loop_
_space_group_symop_operation_xyz
x,y,z
-x,-y,-z
loop_
_atom_site_type_symbol
_atom_site_label
_atom_site_fract_x
_atom_site_fract_y
_atom_site_fract_z
Si Si1 0.830388 0.276178 0.248352
Si Si2 0.258322 0.203393 0.124963
Si Si3 0.488352 0.755039 0.237075
Si Si4 0.327871 0.166569 0.063256
Si Si5 0.234783 0.816866 0.221549
Si Si6 0.977353 0.283818 0.469243
Si Si7 0.080985 0.754513 0.856646
O O1 0.552715 0.196119 0.220091
O O2 0.787925 0.437213 0.160648
O O3 0.000000 0.000000 0.500000
O O4 0.994295 0.560787 0.036345
O O5 0.088231 0.949686 0.316656
O O6 0.217559 0.118276 0.127520
O O7 0.430953 0.901475 0.158083
O O8 0.724319 0.550050 0.467371
O O9 0.241979 0.502047 0.367382
O O10 0.500000 0.000000 0.000000
O O11 0.244393 0.495239 0.763796
O O12 0.625123 0.173958 0.135394
O O13 0.261990 0.935235 0.188140
O O14 0.000000 0.000000 0.000000
O O15 0.977962 0.082300 0.581458
O O16 0.000000 0.500000 0.000000
#
# Coordination Sequence:
#
# PCOD9015731 Si02
#       7
#     2   2   2   2   2   2   2
#     4  10  21  42  64  97 137 189 233 295 345 419
#     4  10  24  41  66  99 143 182 240 286 354 428
#     4  11  26  50  78 105 144 191 244 311 376 436
#     4  12  24  43  73 105 140 195 234 298 367 430
#     4  11  25  50  74 110 146 183 248 309 369 444
#     4  11  25  46  66 106 143 184 244 300 354 446
#     4  11  23  42  67 100 145 184 240 289 352 433
#
# _framework density 22.007438
#
# number of rings (size 3 to 8) (size 9 to 14) (size 15 to 20)
#    0.000    1.143    4.286    0.857    2.000    4.571 
#    0.000    0.000    0.000    0.000    0.000    0.000 
#    0.000    0.000    0.000    0.000    0.000    0.000 
#
# Total GULP energy -77943.753928 kJ/mol
# GULP energy per Si atom -5567.410995 kJ/mol
# Density = 2.195735 g / cm^3
# Si number density = 22.007438 Si / 1000 Ang^3
#
#
#
# Elastic Constant Matrix: (Units=GPa)
#
#
# Indices 1 2 3 4 5 6 
#
# 1 178.4925 -31.3968 88.7294 28.0902 28.7729 -79.4072
# 2 -31.3968 275.5821 8.3204 -82.7144 -23.3869 57.7510
# 3 88.7294 8.3204 134.2175 20.2220 24.1032 -26.5626
# 4 28.0902 -82.7144 20.2220 57.2234 8.9503 -32.2824
# 5 28.7729 -23.3869 24.1032 8.9503 67.3220 -16.0078
# 6 -79.4072 57.7510 -26.5626 -32.2824 -16.0078 77.0259
#
#
#
# Elastic Compliance Matrix: (Units=1/GPa)
#
#
# Indices 1 2 3 4 5 6 
#
# 1 0.015583 -0.000170 -0.007711 0.003274 -0.000894 0.014719
# 2 -0.000170 0.007284 -0.002556 0.010178 0.001714 -0.001896
# 3 -0.007711 -0.002556 0.013245 -0.006962 -0.002579 -0.004919
# 4 0.003274 0.010178 -0.006962 0.038257 0.001865 0.009765
# 5 -0.000894 0.001714 -0.002579 0.001865 0.016786 0.001174
# 6 0.014719 -0.001896 -0.004919 0.009765 0.001174 0.032218
#
#
# Mechanical properties :
#
#
# Convention : Reuss Voigt Hill
#
# Bulk Modulus (GPa) = 65.62037 79.95534 72.78785
# Shear Modulus (GPa) = 33.48402 75.15686 54.32044
#
# Velocity S-wave (km/s) = 3.90486 5.85020 4.97356
# Velocity P-wave (km/s) = 7.08609 9.05776 8.13190
#
# Compressibility (1/GPa) = 0.01523917
#
# Stress axis : x y z
#
# Youngs Moduli (GPa) = 64.17442 137.28626 75.50034
#
# Poissons Ratio (x) = 0.02328 0.58216
# Poissons Ratio (y) = 0.01088 0.19297
# Poissons Ratio (z) = 0.49483 0.35089
#
# Static dielectric constant tensor:
#      x y z
#    x 1.855130 -0.049870 0.057260 
#    y -0.049870 1.858860 -0.012860 
#    z 0.057260 -0.012860 1.803760 
# 
# From -- ./inp_files/622728.got.cif
#   From: 2010.05.17/outbox.cif.g08.bks.cpg/sg2_312_cif.got.tgz:622728.got - 2010.06.03 11:33:40.
