data_PCOD9015209
_publ_section_title
;
Structure prediction by ZEFSAII (Michael W. Deem and Ramdas Pophale) SiO2 
 PCOD9015209
Probable space group: P -1
;
_chemical_formula_sum "Si O2"
_cell_formula_units_Z 16
_cell_length_a 8.316676
_cell_length_b 11.463542
_cell_length_c 21.939705
_cell_angle_alpha 29.897828
_cell_angle_beta 41.055361
_cell_angle_gamma 54.118390
_cell_volume 670.018083
_symmetry_space_group_name_H-M "P -1"
_symmetry_group_IT_number 2
_symmetry_cell_setting 'triclinic'
loop_
_space_group_symop_operation_xyz
x,y,z
-x,-y,-z
loop_
_atom_site_type_symbol
_atom_site_label
_atom_site_fract_x
_atom_site_fract_y
_atom_site_fract_z
Si Si1 0.467599 0.037614 0.062918
Si Si2 0.241322 0.649946 0.397226
Si Si3 0.134249 0.346758 0.073213
Si Si4 0.525528 0.765743 0.463953
Si Si5 0.846977 0.203425 0.970472
Si Si6 0.048888 0.739928 0.668397
Si Si7 0.846652 0.929465 0.416915
Si Si8 0.481331 0.806543 0.813309
O O1 0.232192 0.153535 0.091894
O O2 0.419413 0.799585 0.226716
O O3 0.700067 0.223487 0.940600
O O4 0.500000 0.000000 0.000000
O O5 0.375480 0.470600 0.476836
O O6 0.000000 0.500000 0.500000
O O7 0.095151 0.818945 0.400243
O O8 0.945446 0.196222 0.242388
O O9 0.347736 0.533054 0.961557
O O10 0.000000 0.500000 0.000000
O O11 0.225414 0.716541 0.571147
O O12 0.647652 0.800172 0.482698
O O13 0.606116 0.004580 0.293155
O O14 0.008198 0.459930 0.828549
O O15 0.631018 0.133727 0.115915
O O16 0.000000 0.000000 0.000000
O O17 0.772093 0.796983 0.723082
O O18 0.220392 0.989688 0.534237
#
# Coordination Sequence:
#
# PCOD9015209 Si02
#       8
#     2   2   2   2   2   2   2   2
#     4  11  25  45  69 102 134 174 237 293 345 412
#     4   9  21  43  66  99 135 182 232 281 348 401
#     4  11  21  39  72 103 129 181 237 286 348 411
#     4  11  24  43  69 106 145 190 233 280 351 429
#     4  12  27  45  71 105 138 186 235 296 359 412
#     4  12  24  44  67 102 146 185 237 290 350 421
#     4  10  21  41  72  97 136 188 239 290 340 408
#     4  12  24  46  70 102 146 184 232 288 358 421
#
# _framework density 23.879954000000001
#
# number of rings (size 3 to 8) (size 9 to 14) (size 15 to 20)
#    0.000    1.000    3.750    3.375    1.750    1.000 
#    4.500    8.125    0.000    0.000    0.000    0.000 
#    0.000    0.000    0.000    0.000    0.000    0.000 
#
# Total GULP energy -89169.118554 kJ/mol
# GULP energy per Si atom -5573.069910 kJ/mol
# Density = 2.382560 g / cm^3
# Si number density = 23.879954 Si / 1000 Ang^3
#
#
#
# Elastic Constant Matrix: (Units=GPa)
#
#
# Indices 1 2 3 4 5 6 
#
# 1 59.9512 41.9592 -0.9576 1.3234 -1.8734 -2.2766
# 2 41.9592 144.8388 24.9785 -7.9298 10.8732 -12.3168
# 3 -0.9576 24.9785 63.0036 -11.3401 -2.8850 -7.8865
# 4 1.3234 -7.9298 -11.3401 36.8909 -9.9790 0.7889
# 5 -1.8734 10.8732 -2.8850 -9.9790 27.8039 -12.2083
# 6 -2.2766 -12.3168 -7.8865 0.7889 -12.2083 39.8474
#
#
#
# Elastic Compliance Matrix: (Units=1/GPa)
#
#
# Indices 1 2 3 4 5 6 
#
# 1 0.022071 -0.007307 0.003691 0.000206 0.005410 0.001386
# 2 -0.007307 0.010154 -0.004345 -0.000202 -0.004815 0.000390
# 3 0.003691 -0.004345 0.020099 0.007463 0.009124 0.005494
# 4 0.000206 -0.000202 0.007463 0.033351 0.015221 0.005430
# 5 0.005410 -0.004815 0.009124 0.015221 0.051725 0.016172
# 6 0.001386 0.000390 0.005494 0.005430 0.016172 0.031230
#
#
# Mechanical properties :
#
#
# Convention : Reuss Voigt Hill
#
# Bulk Modulus (GPa) = 27.47121 44.41708 35.94414
# Shear Modulus (GPa) = 25.42120 34.36268 29.89194
#
# Velocity S-wave (km/s) = 3.26627 3.79750 3.54186
# Velocity P-wave (km/s) = 5.07480 6.15374 5.64013
#
# Compressibility (1/GPa) = 0.03640175
#
# Stress axis : x y z
#
# Youngs Moduli (GPa) = 45.30901 98.48331 49.75279
#
# Poissons Ratio (x) = 0.71965 -0.18363
# Poissons Ratio (y) = 0.33109 0.21616
# Poissons Ratio (z) = -0.16723 0.42788
#
# Static dielectric constant tensor:
#      x y z
#    x 1.727680 -0.199660 -0.052690 
#    y -0.199660 1.789570 -0.030000 
#    z -0.052690 -0.030000 1.979150 
# 
# From -- ./inp_files/607438.got.cif
#   From: 2010.05.17/outbox.cif.g08.bks.cpg/sg2_304_cif.got.tgz:607438.got - 2010.06.03 11:33:40.
