data_PCOD9015490
_publ_section_title
;
Structure prediction by ZEFSAII (Michael W. Deem and Ramdas Pophale) SiO2 
 PCOD9015490
Probable space group: P -1
;
_chemical_formula_sum "Si O2"
_cell_formula_units_Z 14
_cell_length_a 7.932225
_cell_length_b 8.393380
_cell_length_c 12.605681
_cell_angle_alpha 56.035847
_cell_angle_beta 69.349523
_cell_angle_gamma 92.576436
_cell_volume 618.882377
_symmetry_space_group_name_H-M "P -1"
_symmetry_group_IT_number 2
_symmetry_cell_setting 'triclinic'
loop_
_space_group_symop_operation_xyz
x,y,z
-x,-y,-z
loop_
_atom_site_type_symbol
_atom_site_label
_atom_site_fract_x
_atom_site_fract_y
_atom_site_fract_z
Si Si1 0.784762 0.090075 0.842008
Si Si2 0.205795 0.024844 0.897216
Si Si3 0.842027 0.301907 0.153075
Si Si4 0.901451 0.669307 0.434860
Si Si5 0.464938 0.411926 0.160698
Si Si6 0.090192 0.112464 0.283932
Si Si7 0.440248 0.640628 0.288379
O O1 0.666543 0.189355 0.754425
O O2 0.001592 0.242228 0.731229
O O3 0.809571 0.893486 0.852061
O O4 0.707051 0.056592 0.989041
O O5 0.348155 0.247017 0.763745
O O6 0.192125 0.881894 0.853985
O O7 0.000000 0.000000 0.000000
O O8 0.643798 0.347317 0.185577
O O9 0.937292 0.230908 0.260219
O O10 0.000000 0.500000 0.000000
O O11 0.681877 0.552835 0.545551
O O12 0.000000 0.500000 0.500000
O O13 0.980618 0.873515 0.413011
O O14 0.267886 0.227334 0.272788
O O15 0.439423 0.570203 0.193428
O O16 0.500000 0.500000 0.000000
#
# Coordination Sequence:
#
# PCOD9015490 Si02
#       7
#     2   2   2   2   2   2   2
#     4   9  19  39  62  90 118 159 211 263 307 360
#     4  12  21  37  63  92 122 159 212 269 307 367
#     4  12  24  40  61  94 136 164 204 264 324 374
#     4   8  19  40  66  89 126 163 212 265 308 374
#     4  12  23  38  64  96 131 168 205 260 324 379
#     4  10  21  42  63  89 131 162 211 259 318 365
#     4  11  22  39  65  94 121 167 219 250 317 385
#
# _framework density 22.621424000000001
#
# number of rings (size 3 to 8) (size 9 to 14) (size 15 to 20)
#    0.857    0.571    2.857    3.857    0.000    0.571 
#    0.000    3.571    0.000    0.000    0.000    0.000 
#    0.000    0.000    0.000    0.000    0.000    0.000 
#
# Total GULP energy -78046.427693 kJ/mol
# GULP energy per Si atom -5574.744835 kJ/mol
# Density = 2.256994 g / cm^3
# Si number density = 22.621424 Si / 1000 Ang^3
#
#
#
# Elastic Constant Matrix: (Units=GPa)
#
#
# Indices 1 2 3 4 5 6 
#
# 1 140.7344 25.5232 27.4315 -27.5101 -27.0470 -3.3481
# 2 25.5232 64.8907 20.8954 -26.3853 -13.9282 7.1675
# 3 27.4315 20.8954 121.4625 -24.5820 -35.6836 17.4771
# 4 -27.5101 -26.3853 -24.5820 41.2033 12.4273 -9.6590
# 5 -27.0470 -13.9282 -35.6836 12.4273 35.0455 -12.6685
# 6 -3.3481 7.1675 17.4771 -9.6590 -12.6685 38.5437
#
#
#
# Elastic Compliance Matrix: (Units=1/GPa)
#
#
# Indices 1 2 3 4 5 6 
#
# 1 0.009691 -0.000809 0.000543 0.005054 0.007541 0.004491
# 2 -0.000809 0.021420 -0.000003 0.012116 0.003657 0.000186
# 3 0.000543 -0.000003 0.012375 0.004158 0.011245 -0.000825
# 4 0.005054 0.012116 0.004158 0.038969 0.001503 0.006560
# 5 0.007541 0.003657 0.011245 0.001503 0.051077 0.012041
# 6 0.004491 0.000186 -0.000825 0.006560 0.012041 0.032276
#
#
# Mechanical properties :
#
#
# Convention : Reuss Voigt Hill
#
# Bulk Modulus (GPa) = 23.28335 52.75420 38.01878
# Shear Modulus (GPa) = 27.67614 39.84099 33.75857
#
# Velocity S-wave (km/s) = 3.50158 4.20123 3.86726
# Velocity P-wave (km/s) = 5.16362 6.84871 6.06497
#
# Compressibility (1/GPa) = 0.04294914
#
# Stress axis : x y z
#
# Youngs Moduli (GPa) = 103.19211 46.68449 80.80919
#
# Poissons Ratio (x) = 0.03775 -0.04386
# Poissons Ratio (y) = 0.08344 0.00021
# Poissons Ratio (z) = -0.05601 0.00012
#
# Static dielectric constant tensor:
#      x y z
#    x 2.077570 -0.069740 0.160910 
#    y -0.069740 1.838990 -0.088470 
#    z 0.160910 -0.088470 2.069220 
# 
# From -- ./inp_files/492260.got.cif
#   From: 2010.05.17/outbox.cif.g08.bks.cpg/sg2_247_cif.got.tgz:492260.got - 2010.06.03 11:33:40.
