data_PCOD9015129
_publ_section_title
;
Structure prediction by ZEFSAII (Michael W. Deem and Ramdas Pophale) SiO2 
 PCOD9015129
Probable space group: P -1
;
_chemical_formula_sum "Si O2"
_cell_formula_units_Z 14
_cell_length_a 10.453060
_cell_length_b 8.481729
_cell_length_c 11.283071
_cell_angle_alpha 125.680278
_cell_angle_beta 129.603021
_cell_angle_gamma 71.318421
_cell_volume 623.948873
_symmetry_space_group_name_H-M "P -1"
_symmetry_group_IT_number 2
_symmetry_cell_setting 'triclinic'
loop_
_space_group_symop_operation_xyz
x,y,z
-x,-y,-z
loop_
_atom_site_type_symbol
_atom_site_label
_atom_site_fract_x
_atom_site_fract_y
_atom_site_fract_z
Si Si1 0.097429 0.848886 0.563414
Si Si2 0.131259 0.076535 0.337804
Si Si3 0.922514 0.311119 0.013560
Si Si4 0.491655 0.876128 0.819312
Si Si5 0.280749 0.480368 0.201961
Si Si6 0.029286 0.426497 0.352897
Si Si7 0.572541 0.087790 0.456497
O O1 0.293336 0.842417 0.672264
O O2 0.039213 0.635064 0.387541
O O3 0.041060 0.891791 0.683583
O O4 0.000000 0.000000 0.500000
O O5 0.177676 0.283864 0.392774
O O6 0.259035 0.023959 0.491417
O O7 0.110201 0.898712 0.158100
O O8 0.115507 0.389459 0.134422
O O9 0.901010 0.303614 0.138505
O O10 0.798929 0.449180 0.937025
O O11 0.592029 0.685141 0.809826
O O12 0.534615 0.955534 0.744950
O O13 0.500000 0.000000 0.000000
O O14 0.373089 0.679913 0.398505
O O15 0.000000 0.500000 0.500000
O O16 0.500000 0.000000 0.500000
#
# Coordination Sequence:
#
# PCOD9015129 Si02
#       7
#     2   2   2   2   2   2   2
#     4  11  23  43  68  92 137 180 228 272 331 403
#     4  10  22  42  67  98 129 180 220 275 340 400
#     4  10  21  41  71  97 132 167 235 278 322 409
#     4  12  26  43  70 101 133 178 232 285 330 401
#     4  10  24  42  70  98 128 182 225 277 336 400
#     4  10  23  38  65  96 133 172 217 272 336 400
#     4  11  25  44  67  97 142 175 219 283 344 407
#
# _framework density 22.437736000000001
#
# number of rings (size 3 to 8) (size 9 to 14) (size 15 to 20)
#    0.000    1.429    1.429    2.571   10.000    0.000 
#   10.286    0.714    0.000    0.000    0.000    0.000 
#    0.000    0.000    0.000    0.000    0.000    0.000 
#
# Total GULP energy -77962.542029 kJ/mol
# GULP energy per Si atom -5568.753002 kJ/mol
# Density = 2.238667 g / cm^3
# Si number density = 22.437736 Si / 1000 Ang^3
#
#
#
# Elastic Constant Matrix: (Units=GPa)
#
#
# Indices 1 2 3 4 5 6 
#
# 1 83.1870 38.9084 27.5877 -9.9934 -13.6098 -16.8100
# 2 38.9084 230.7424 77.5792 0.8073 -17.4639 -27.7965
# 3 27.5877 77.5792 134.2731 -13.8837 -37.6663 0.0343
# 4 -9.9934 0.8073 -13.8837 26.4611 8.3289 3.0017
# 5 -13.6098 -17.4639 -37.6663 8.3289 36.6562 -5.9565
# 6 -16.8100 -27.7965 0.0343 3.0017 -5.9565 28.2020
#
#
#
# Elastic Compliance Matrix: (Units=1/GPa)
#
#
# Indices 1 2 3 4 5 6 
#
# 1 0.015860 -0.000786 -0.001009 0.002698 0.005414 0.009536
# 2 -0.000786 0.006610 -0.003787 -0.003496 0.000832 0.006599
# 3 -0.001009 -0.003787 0.013010 0.003743 0.009907 -0.002656
# 4 0.002698 -0.003496 0.003743 0.044425 -0.008263 -0.008316
# 5 0.005414 0.000832 0.009907 -0.008263 0.044055 0.014220
# 6 0.009536 0.006599 -0.002656 -0.008316 0.014220 0.051538
#
#
# Mechanical properties :
#
#
# Convention : Reuss Voigt Hill
#
# Bulk Modulus (GPa) = 41.12660 81.81702 61.47181
# Shear Modulus (GPa) = 25.67141 38.53901 32.10521
#
# Velocity S-wave (km/s) = 3.38615 4.14889 3.78677
# Velocity P-wave (km/s) = 5.80147 7.71325 6.82463
#
# Compressibility (1/GPa) = 0.02431516
#
# Stress axis : x y z
#
# Youngs Moduli (GPa) = 63.05015 151.28950 76.86434
#
# Poissons Ratio (x) = 0.11891 0.07759
# Poissons Ratio (y) = 0.04955 0.29110
# Poissons Ratio (z) = 0.06364 0.57296
#
# Static dielectric constant tensor:
#      x y z
#    x 2.145800 0.184110 -0.055290 
#    y 0.184110 1.938640 -0.041170 
#    z -0.055290 -0.041170 1.913370 
# 
# From -- ./inp_files/419893.got.cif
#   From: 2010.05.17/outbox.cif.g08.bks.cpg/sg2_210_cif.got.tgz:419893.got - 2010.06.03 11:33:40.
