data_PCOD9015465
_publ_section_title
;
Structure prediction by ZEFSAII (Michael W. Deem and Ramdas Pophale) SiO2 
 PCOD9015465
Probable space group: P -1
;
_chemical_formula_sum "Si O2"
_cell_formula_units_Z 16
_cell_length_a 11.955645
_cell_length_b 5.288513
_cell_length_c 14.260850
_cell_angle_alpha 78.530148
_cell_angle_beta 53.064717
_cell_angle_gamma 101.310175
_cell_volume 646.466027
_symmetry_space_group_name_H-M "P -1"
_symmetry_group_IT_number 2
_symmetry_cell_setting 'triclinic'
loop_
_space_group_symop_operation_xyz
x,y,z
-x,-y,-z
loop_
_atom_site_type_symbol
_atom_site_label
_atom_site_fract_x
_atom_site_fract_y
_atom_site_fract_z
Si Si1 0.707291 0.134650 0.508217
Si Si2 0.168953 0.240171 0.911304
Si Si3 0.876092 0.378486 0.228917
Si Si4 0.747845 0.599048 0.591752
Si Si5 0.565153 0.886330 0.243961
Si Si6 0.564420 0.212604 0.038857
Si Si7 0.746716 0.709044 0.790567
Si Si8 0.929685 0.998352 0.837865
O O1 0.736780 0.251121 0.380414
O O2 0.794732 0.394320 0.517430
O O3 0.764451 0.887177 0.513076
O O4 0.565789 0.406048 0.706613
O O5 0.166731 0.533622 0.857216
O O6 0.292473 0.178731 0.792468
O O7 0.198997 0.187727 0.007773
O O8 0.000000 0.000000 0.000000
O O9 0.957516 0.163781 0.203842
O O10 0.987661 0.681028 0.193745
O O11 0.530535 0.030978 0.635864
O O12 0.806726 0.662681 0.663425
O O13 0.606226 0.096515 0.120622
O O14 0.709708 0.454028 0.900532
O O15 0.419359 0.280921 0.136307
O O16 0.500000 0.000000 0.000000
O O17 0.860591 0.975411 0.770980
#
# Coordination Sequence:
#
# PCOD9015465 Si02
#       8
#     2   2   2   2   2   2   2   2
#     4  10  22  43  70  91 139 168 232 269 319 383
#     4  10  24  46  67 100 133 172 219 278 337 396
#     4  11  25  49  66  95 130 185 225 276 320 389
#     4  10  21  42  63 103 130 172 212 280 320 391
#     4  10  22  39  69  96 137 169 218 272 335 379
#     4  11  20  35  62  96 135 174 213 271 328 400
#     4  11  23  36  63 101 137 172 216 266 340 395
#     4  11  26  43  70  97 136 175 220 270 339 395
#
# _framework density 24.749946999999999
#
# number of rings (size 3 to 8) (size 9 to 14) (size 15 to 20)
#    0.750    0.750    2.500    1.875    7.000    0.500 
#    4.500    4.375    0.000    0.000    0.000    0.000 
#    0.000    0.000    0.000    0.000    0.000    0.000 
#
# Total GULP energy -89457.924568 kJ/mol
# GULP energy per Si atom -5591.120286 kJ/mol
# Density = 2.469361 g / cm^3
# Si number density = 24.749947 Si / 1000 Ang^3
#
#
#
# Elastic Constant Matrix: (Units=GPa)
#
#
# Indices 1 2 3 4 5 6 
#
# 1 69.7416 16.1470 19.0955 -6.8517 7.1969 -2.3581
# 2 16.1470 107.9054 3.7739 -2.0674 7.9143 -3.3872
# 3 19.0955 3.7739 83.0879 -2.0503 21.4269 -17.3781
# 4 -6.8517 -2.0674 -2.0503 19.3091 -8.6688 0.0273
# 5 7.1969 7.9143 21.4269 -8.6688 28.2985 8.5711
# 6 -2.3581 -3.3872 -17.3781 0.0273 8.5711 43.5562
#
#
#
# Elastic Compliance Matrix: (Units=1/GPa)
#
#
# Indices 1 2 3 4 5 6 
#
# 1 0.016413 -0.002386 -0.004353 0.006041 0.002078 -0.001446
# 2 -0.002386 0.009947 0.001741 -0.001712 -0.004704 0.002266
# 3 -0.004353 0.001741 0.020995 -0.008946 -0.021827 0.012577
# 4 0.006041 -0.001712 -0.008946 0.065634 0.028559 -0.009036
# 5 0.002078 -0.004704 -0.021827 0.028559 0.068184 -0.022397
# 6 -0.001446 0.002266 0.012577 -0.009036 -0.022397 0.032488
#
#
# Mechanical properties :
#
#
# Convention : Reuss Voigt Hill
#
# Bulk Modulus (GPa) = 26.76622 37.64084 32.20353
# Shear Modulus (GPa) = 21.17659 33.01400 27.09529
#
# Velocity S-wave (km/s) = 2.92827 3.65622 3.31231
# Velocity P-wave (km/s) = 4.71924 5.75026 5.26007
#
# Compressibility (1/GPa) = 0.03736053
#
# Stress axis : x y z
#
# Youngs Moduli (GPa) = 60.92689 100.53410 47.62938
#
# Poissons Ratio (x) = 0.23986 0.20733
# Poissons Ratio (y) = 0.14536 -0.08294
# Poissons Ratio (z) = 0.26521 -0.17507
#
# Static dielectric constant tensor:
#      x y z
#    x 1.981230 0.044340 0.005320 
#    y 0.044340 2.024200 0.028040 
#    z 0.005320 0.028040 1.980510 
# 
# From -- ./inp_files/510882.got.cif
#   From: 2010.05.17/outbox.cif.g08.bks.cpg/sg2_256_cif.got.tgz:510882.got - 2010.06.03 11:33:40.
