data_PCOD9015572
_publ_section_title
;
Structure prediction by ZEFSAII (Michael W. Deem and Ramdas Pophale) SiO2 
 PCOD9015572
Probable space group: P -1
;
_chemical_formula_sum "Si O2"
_cell_formula_units_Z 16
_cell_length_a 17.353308
_cell_length_b 9.009959
_cell_length_c 19.788729
_cell_angle_alpha 38.721908
_cell_angle_beta 19.794668
_cell_angle_gamma 37.672459
_cell_volume 630.894159
_symmetry_space_group_name_H-M "P -1"
_symmetry_group_IT_number 2
_symmetry_cell_setting 'triclinic'
loop_
_space_group_symop_operation_xyz
x,y,z
-x,-y,-z
loop_
_atom_site_type_symbol
_atom_site_label
_atom_site_fract_x
_atom_site_fract_y
_atom_site_fract_z
Si Si1 0.799933 0.922177 0.651100
Si Si2 0.701916 0.860113 0.477859
Si Si3 0.150171 0.058617 0.027883
Si Si4 0.823519 0.828608 0.187087
Si Si5 0.669349 0.702328 0.715268
Si Si6 0.901085 0.662265 0.891020
Si Si7 0.430483 0.588773 0.300193
Si Si8 0.622869 0.201478 0.882852
O O1 0.848672 0.756681 0.603396
O O2 0.644845 0.193368 0.661245
O O3 0.635399 0.806261 0.875074
O O4 0.000000 0.000000 0.500000
O O5 0.709195 0.797763 0.574127
O O6 0.703267 0.616525 0.521524
O O7 0.443030 0.044768 0.613374
O O8 0.931472 0.942351 0.241281
O O9 0.074682 0.247922 0.084895
O O10 0.185279 0.173453 0.886631
O O11 0.402190 0.853461 0.904598
O O12 0.897732 0.535152 0.244775
O O13 0.000000 0.000000 0.000000
O O14 0.688533 0.415078 0.795435
O O15 0.794295 0.927098 0.848684
O O16 0.709401 0.502307 0.108898
O O17 0.397749 0.711276 0.208424
#
# Coordination Sequence:
#
# PCOD9015572 Si02
#       8
#     2   2   2   2   2   2   2   2
#     4  11  22  35  61  96 135 171 216 265 316 393
#     4  10  24  43  69  98 126 175 226 265 326 397
#     4  11  24  43  72  95 131 175 218 275 329 385
#     4  11  24  46  70  95 130 170 223 279 331 380
#     4  10  22  43  65  96 137 174 213 266 328 395
#     4  11  21  41  68  91 134 175 210 274 333 380
#     4  10  21  42  63  96 135 170 214 265 329 395
#     4  10  22  40  66  92 134 179 210 256 339 394
#
# _framework density 25.360831999999998
#
# number of rings (size 3 to 8) (size 9 to 14) (size 15 to 20)
#    0.000    1.500    3.750    2.250    1.750    3.000 
#    0.000    3.750    5.500    0.000    0.000    0.000 
#    0.000    0.000    0.000    0.000    0.000    0.000 
#
# Total GULP energy -89527.515543 kJ/mol
# GULP energy per Si atom -5595.469721 kJ/mol
# Density = 2.530311 g / cm^3
# Si number density = 25.360832 Si / 1000 Ang^3
#
#
#
# Elastic Constant Matrix: (Units=GPa)
#
#
# Indices 1 2 3 4 5 6 
#
# 1 104.2293 47.4778 29.2923 -14.5737 -6.7463 27.8698
# 2 47.4778 153.9402 45.9714 -6.1175 -11.5282 31.8870
# 3 29.2923 45.9714 129.5581 -4.4097 -10.3641 11.7940
# 4 -14.5737 -6.1175 -4.4097 32.3285 8.0417 -10.8894
# 5 -6.7463 -11.5282 -10.3641 8.0417 42.3802 -6.0947
# 6 27.8698 31.8870 11.7940 -10.8894 -6.0947 44.0137
#
#
#
# Elastic Compliance Matrix: (Units=1/GPa)
#
#
# Indices 1 2 3 4 5 6 
#
# 1 0.012970 -0.002334 -0.001533 0.003505 -0.000372 -0.005295
# 2 -0.002334 0.008827 -0.002150 -0.001490 0.001132 -0.004552
# 3 -0.001533 -0.002150 0.008909 -0.000133 0.001419 0.000304
# 4 0.003505 -0.001490 -0.000133 0.035992 -0.005701 0.007011
# 5 -0.000372 0.001132 0.001419 -0.005701 0.025438 0.001147
# 6 -0.005295 -0.004552 0.000304 0.007011 0.001147 0.031183
#
#
# Mechanical properties :
#
#
# Convention : Reuss Voigt Hill
#
# Bulk Modulus (GPa) = 53.55513 70.35672 61.95592
# Shear Modulus (GPa) = 35.31637 41.41022 38.36329
#
# Velocity S-wave (km/s) = 3.73574 4.04523 3.89356
# Velocity P-wave (km/s) = 6.30641 7.04422 6.68550
#
# Compressibility (1/GPa) = 0.01867235
#
# Stress axis : x y z
#
# Youngs Moduli (GPa) = 77.10009 113.29516 112.24337
#
# Poissons Ratio (x) = 0.26445 0.17203
# Poissons Ratio (y) = 0.17997 0.24132
# Poissons Ratio (z) = 0.11816 0.24358
#
# Static dielectric constant tensor:
#      x y z
#    x 2.018150 -0.069740 -0.020800 
#    y -0.069740 2.083940 0.124190 
#    z -0.020800 0.124190 2.092420 
# 
# From -- ./inp_files/599691.got.cif
#   From: 2010.05.17/outbox.cif.g08.bks.cpg/sg2_300_cif.got.tgz:599691.got - 2010.06.03 11:33:40.
