data_PCOD9015352
_publ_section_title
;
Structure prediction by ZEFSAII (Michael W. Deem and Ramdas Pophale) SiO2 
 PCOD9015352
Probable space group: P -1
;
_chemical_formula_sum "Si O2"
_cell_formula_units_Z 16
_cell_length_a 11.085483
_cell_length_b 6.380976
_cell_length_c 11.650709
_cell_angle_alpha 86.815477
_cell_angle_beta 79.651257
_cell_angle_gamma 55.882265
_cell_volume 670.149927
_symmetry_space_group_name_H-M "P -1"
_symmetry_group_IT_number 2
_symmetry_cell_setting 'triclinic'
loop_
_space_group_symop_operation_xyz
x,y,z
-x,-y,-z
loop_
_atom_site_type_symbol
_atom_site_label
_atom_site_fract_x
_atom_site_fract_y
_atom_site_fract_z
Si Si1 0.718160 0.704714 0.425842
Si Si2 0.185470 0.841191 0.844458
Si Si3 0.575589 0.083184 0.639396
Si Si4 0.786240 0.245226 0.588107
Si Si5 0.318682 0.171227 0.152713
Si Si6 0.073367 0.145913 0.625731
Si Si7 0.421482 0.387749 0.952664
Si Si8 0.924007 0.776455 0.951294
O O1 0.601548 0.769128 0.342779
O O2 0.736814 0.476316 0.502972
O O3 0.878304 0.656605 0.375781
O O4 0.635815 0.963215 0.507099
O O5 0.328364 0.570477 0.859180
O O6 0.045605 0.827958 0.894150
O O7 0.165850 0.946312 0.717293
O O8 0.178218 0.031657 0.935630
O O9 0.646026 0.242231 0.654887
O O10 0.649544 0.840907 0.718549
O O11 0.901047 0.241883 0.658162
O O12 0.877322 0.988782 0.502920
O O13 0.171435 0.189889 0.144253
O O14 0.458132 0.894191 0.100372
O O15 0.319300 0.373380 0.065930
O O16 0.500000 0.500000 0.000000
O O17 0.000000 0.500000 0.000000
#
# Coordination Sequence:
#
# PCOD9015352 Si02
#       8
#     2   2   2   2   2   2   2   2
#     4  10  22  40  60  91 123 155 201 255 298 366
#     4  11  24  41  64  92 125 165 205 254 311 362
#     4  10  23  39  61  91 121 156 205 248 305 366
#     4  10  21  42  61  89 123 157 202 252 300 368
#     4  11  24  41  64  91 124 166 207 253 311 361
#     4  10  23  38  64  91 120 157 206 246 304 368
#     4  11  24  41  61  91 129 158 209 259 298 371
#     4  11  23  42  61  89 126 161 210 253 298 369
#
# _framework density 23.875254999999999
#
# number of rings (size 3 to 8) (size 9 to 14) (size 15 to 20)
#    0.000    1.500    2.500    1.500    3.500    3.000 
#    0.000    0.000    0.000    0.000    0.000    0.000 
#    0.000    0.000    0.000    0.000    0.000    0.000 
#
# Total GULP energy -89442.478878 kJ/mol
# GULP energy per Si atom -5590.154930 kJ/mol
# Density = 2.382091 g / cm^3
# Si number density = 23.875255 Si / 1000 Ang^3
#
#
#
# Elastic Constant Matrix: (Units=GPa)
#
#
# Indices 1 2 3 4 5 6 
#
# 1 137.1808 16.5980 22.3765 -0.5253 28.3826 8.0630
# 2 16.5980 63.8632 9.4156 -13.4771 4.7839 1.2264
# 3 22.3765 9.4156 79.8816 -12.4170 21.8174 -2.5264
# 4 -0.5253 -13.4771 -12.4170 35.7056 -6.7063 3.6188
# 5 28.3826 4.7839 21.8174 -6.7063 38.1942 -14.8723
# 6 8.0630 1.2264 -2.5264 3.6188 -14.8723 27.4191
#
#
#
# Elastic Compliance Matrix: (Units=1/GPa)
#
#
# Indices 1 2 3 4 5 6 
#
# 1 0.010366 -0.002067 -0.000212 -0.001893 -0.011051 -0.008720
# 2 -0.002067 0.017659 -0.000649 0.006593 0.000532 -0.000823
# 3 -0.000212 -0.000649 0.015782 0.003839 -0.009759 -0.004254
# 4 -0.001893 0.006593 0.003839 0.032628 0.003398 -0.001847
# 5 -0.011051 0.000532 -0.009759 0.003398 0.052269 0.030229
# 6 -0.008720 -0.000823 -0.004254 -0.001847 0.030229 0.055320
#
#
# Mechanical properties :
#
#
# Convention : Reuss Voigt Hill
#
# Bulk Modulus (GPa) = 26.35025 41.96730 34.15878
# Shear Modulus (GPa) = 24.68770 35.76615 30.22692
#
# Velocity S-wave (km/s) = 3.21912 3.87465 3.56200
# Velocity P-wave (km/s) = 4.98774 6.13459 5.59065
#
# Compressibility (1/GPa) = 0.03795030
#
# Stress axis : x y z
#
# Youngs Moduli (GPa) = 96.46922 56.62962 63.36402
#
# Poissons Ratio (x) = 0.11706 0.01343
# Poissons Ratio (y) = 0.19942 0.04112
# Poissons Ratio (z) = 0.02044 0.03675
#
# Static dielectric constant tensor:
#      x y z
#    x 1.958680 0.000640 -0.027360 
#    y 0.000640 1.905800 0.038370 
#    z -0.027360 0.038370 1.934030 
# 
# From -- ./inp_files/84464.got.cif
#   From: 2010.05.17/outbox.cif.g08.bks.cpg/sg2_43_cif.got.tgz:84464.got - 2010.06.03 11:33:40.
