data_PCOD9015341
_publ_section_title
;
Structure prediction by ZEFSAII (Michael W. Deem and Ramdas Pophale) SiO2 
 PCOD9015341
Probable space group: P -1
;
_chemical_formula_sum "Si O2"
_cell_formula_units_Z 14
_cell_length_a 13.055237
_cell_length_b 6.987232
_cell_length_c 7.156697
_cell_angle_alpha 72.152203
_cell_angle_beta 113.097265
_cell_angle_gamma 89.201971
_cell_volume 564.852843
_symmetry_space_group_name_H-M "P -1"
_symmetry_group_IT_number 2
_symmetry_cell_setting 'triclinic'
loop_
_space_group_symop_operation_xyz
x,y,z
-x,-y,-z
loop_
_atom_site_type_symbol
_atom_site_label
_atom_site_fract_x
_atom_site_fract_y
_atom_site_fract_z
Si Si1 0.083506 0.807913 0.458239
Si Si2 0.319397 0.318613 0.201027
Si Si3 0.141152 0.974654 0.831957
Si Si4 0.505997 0.259546 0.057274
Si Si5 0.689113 0.097313 0.506818
Si Si6 0.623096 0.229044 0.803167
Si Si7 0.914436 0.452190 0.110463
O O1 0.969473 0.867132 0.240375
O O2 0.885750 0.243940 0.065720
O O3 0.118936 0.973537 0.589042
O O4 0.196541 0.802297 0.419732
O O5 0.407677 0.221623 0.136260
O O6 0.353167 0.536675 0.223568
O O7 0.303346 0.144506 0.390687
O O8 0.195550 0.381085 0.008382
O O9 0.064392 0.623476 0.636827
O O10 0.269269 0.939737 0.004599
O O11 0.627661 0.167534 0.251796
O O12 0.500000 0.500000 0.000000
O O13 0.515194 0.206621 0.861025
O O14 0.607292 0.194931 0.584760
O O15 0.000000 0.500000 0.000000
#
# Coordination Sequence:
#
# PCOD9015341 Si02
#       7
#     2   2   2   2   2   2   2
#     4   9  17  32  59  84 118 161 190 239 298 340
#     4  10  22  37  59  91 117 152 200 244 287 352
#     4   8  16  33  56  83 114 162 188 235 299 338
#     4  10  21  42  61  82 124 154 194 248 294 342
#     4  12  22  38  64  88 116 158 198 240 298 349
#     4  10  22  40  62  86 120 158 195 243 295 346
#     4   9  16  31  58  84 112 153 190 231 293 343
#
# _framework density 24.785214
#
# number of rings (size 3 to 8) (size 9 to 14) (size 15 to 20)
#    0.857    1.429    1.429    2.143    0.000    3.429 
#    0.000    4.286    0.000    4.286    0.000    0.000 
#    0.000    0.000    0.000    0.000    0.000    0.000 
#
# Total GULP energy -77944.600288 kJ/mol
# GULP energy per Si atom -5567.471449 kJ/mol
# Density = 2.472880 g / cm^3
# Si number density = 24.785214 Si / 1000 Ang^3
#
#
#
# Elastic Constant Matrix: (Units=GPa)
#
#
# Indices 1 2 3 4 5 6 
#
# 1 119.2243 26.8611 38.9762 -13.5749 -11.3421 -1.5154
# 2 26.8611 61.6637 33.8900 -8.2433 3.7354 5.6782
# 3 38.9762 33.8900 83.4443 -22.8012 2.5527 -0.3036
# 4 -13.5749 -8.2433 -22.8012 43.1796 -7.8169 -0.4889
# 5 -11.3421 3.7354 2.5527 -7.8169 41.9898 0.8247
# 6 -1.5154 5.6782 -0.3036 -0.4889 0.8247 38.9844
#
#
#
# Elastic Compliance Matrix: (Units=1/GPa)
#
#
# Indices 1 2 3 4 5 6 
#
# 1 0.010715 -0.002798 -0.003530 0.001640 0.003648 0.000740
# 2 -0.002798 0.022093 -0.007972 -0.001348 -0.002421 -0.003354
# 3 -0.003530 -0.007972 0.018884 0.007345 -0.000050 0.001264
# 4 0.001640 -0.001348 0.007345 0.028274 0.005369 0.000558
# 5 0.003648 -0.002421 -0.000050 0.005369 0.026018 0.000011
# 6 0.000740 -0.003354 0.001264 0.000558 0.000011 0.026185
#
#
# Mechanical properties :
#
#
# Convention : Reuss Voigt Hill
#
# Bulk Modulus (GPa) = 43.30471 51.53186 47.41829
# Shear Modulus (GPa) = 29.67962 35.80442 32.74202
#
# Velocity S-wave (km/s) = 3.46421 3.80490 3.63854
# Velocity P-wave (km/s) = 5.78886 6.33557 6.06838
#
# Compressibility (1/GPa) = 0.02309218
#
# Stress axis : x y z
#
# Youngs Moduli (GPa) = 93.32825 45.26405 52.95538
#
# Poissons Ratio (x) = 0.12663 0.18691
# Poissons Ratio (y) = 0.26110 0.42218
# Poissons Ratio (z) = 0.32940 0.36086
#
# Static dielectric constant tensor:
#      x y z
#    x 2.196360 -0.037990 0.026650 
#    y -0.037990 2.044270 0.031980 
#    z 0.026650 0.031980 1.956100 
# 
# From -- ./inp_files/289757.got.cif
#   From: 2010.05.17/outbox.cif.g08.bks.cpg/sg2_145_cif.got.tgz:289757.got - 2010.06.03 11:33:40.
